# generated using pymatgen
data_Ti11CoN12
_symmetry_space_group_name_H-M   'P 1'
_cell_length_a   5.19895141
_cell_length_b   5.99878162
_cell_length_c   7.35036042
_cell_angle_alpha   90.00000000
_cell_angle_beta   90.09488539
_cell_angle_gamma   90.00000000
_symmetry_Int_Tables_number   1
_chemical_formula_structural   Ti11CoN12
_chemical_formula_sum   'Ti11 Co1 N12'
_cell_volume   229.23812627
_cell_formula_units_Z   1
loop_
 _symmetry_equiv_pos_site_id
 _symmetry_equiv_pos_as_xyz
  1  'x, y, z'
loop_
 _atom_site_type_symbol
 _atom_site_label
 _atom_site_symmetry_multiplicity
 _atom_site_fract_x
 _atom_site_fract_y
 _atom_site_fract_z
 _atom_site_occupancy
  Ti  Ti0  1  0.50138456  0.25029192  0.00493218  1
  Ti  Ti1  1  0.32250079  -0.00002378  0.67180543  1
  Ti  Ti2  1  0.16664990  0.74666312  0.33331349  1
  Ti  Ti3  1  0.50147200  0.74968627  0.00488711  1
  Ti  Ti4  1  0.34418458  0.49999619  0.67066765  1
  Ti  Ti5  1  0.01083252  0.00002378  0.99486126  1
  Ti  Ti6  1  0.83194875  0.74970801  0.66173451  1
  Ti  Ti7  1  0.98914873  0.50000375  0.99599898  1
  Ti  Ti8  1  0.16668342  0.25333681  0.33335313  1
  Ti  Ti9  1  0.83186131  0.25031372  0.66177958  1
  Ti  Ti10  1  0.66666663  -0.00000000  0.33333331  1
  Co  Co11  1  0.66666663  0.49999997  0.33333331  1
  N  N12  1  0.16669266  0.25268132  0.83331874  1
  N  N13  1  0.49580001  0.24506045  0.50246012  1
  N  N14  1  0.33332046  -0.00002038  0.16854453  1
  N  N15  1  0.16664064  0.74731867  0.83334788  1
  N  N16  1  0.49580323  0.75495920  0.50248652  1
  N  N17  1  0.32635057  0.49998852  0.16377085  1
  N  N18  1  0.83753005  0.24504073  0.16418011  1
  N  N19  1  0.66666669  -0.00000000  0.83333331  1
  N  N20  1  0.00001285  0.00002038  0.49812213  1
  N  N21  1  0.83753327  0.75493948  0.16420651  1
  N  N22  1  0.66666669  0.49999997  0.83333331  1
  N  N23  1  0.00698274  0.50001142  0.50289581  1
