# generated using pymatgen
data_HfTaTiNbWC5
_symmetry_space_group_name_H-M   'P 1'
_cell_length_a   7.08100000
_cell_length_b   4.47700000
_cell_length_c   7.07700000
_cell_angle_alpha   90.00000000
_cell_angle_beta   90.00000000
_cell_angle_gamma   90.00000000
_symmetry_Int_Tables_number   1
_chemical_formula_structural   HfTaTiNbWC5
_chemical_formula_sum   'Hf2 Ta2 Ti2 Nb2 W2 C10'
_cell_volume   224.35248505
_cell_formula_units_Z   2
loop_
 _symmetry_equiv_pos_site_id
 _symmetry_equiv_pos_as_xyz
  1  'x, y, z'
loop_
 _atom_site_type_symbol
 _atom_site_label
 _atom_site_symmetry_multiplicity
 _atom_site_fract_x
 _atom_site_fract_y
 _atom_site_fract_z
 _atom_site_occupancy
  C  C0  1  0.70486705  0.00000000  0.90399078  1
  C  C1  1  0.49733607  0.00000000  0.49281713  1
  C  C2  1  0.59891152  0.50000000  0.19713428  1
  C  C3  1  0.90097194  0.00000000  0.29794791  1
  C  C4  1  0.00244857  0.50000000  0.00785405  1
  C  C5  1  0.30137449  0.00000000  0.10824217  1
  C  C6  1  0.40373409  0.50000000  0.80268255  1
  C  C7  1  0.79734999  0.50000000  0.59853615  1
  C  C8  1  0.09609213  0.00000000  0.69974898  1
  C  C9  1  0.19533542  0.50000000  0.39236872  1
  Hf  Hf10  1  0.40154051  0.00000000  0.80538418  1
  Hf  Hf11  1  0.10068456  0.50000000  0.69837081  1
  Nb  Nb12  1  0.50285091  0.50000000  0.49243198  1
  Nb  Nb13  1  0.79615356  0.00000000  0.59089632  1
  Ta  Ta14  1  0.69930594  0.50000000  0.90457365  1
  Ta  Ta15  1  0.00159715  0.00000000  0.00569669  1
  Ti  Ti16  1  0.30556467  0.50000000  0.10630358  1
  Ti  Ti17  1  0.59659936  0.00000000  0.20061766  1
  W  W18  1  0.21076878  0.00000000  0.39850730  1
  W  W19  1  0.88651333  0.50000000  0.29589509  1
