# generated using pymatgen
data_HfTaTiNbVC5
_symmetry_space_group_name_H-M   'P 1'
_cell_length_a   7.02100000
_cell_length_b   4.46300000
_cell_length_c   7.02400000
_cell_angle_alpha   90.00000000
_cell_angle_beta   90.00000000
_cell_angle_gamma   90.00000000
_symmetry_Int_Tables_number   1
_chemical_formula_structural   HfTaTiNbVC5
_chemical_formula_sum   'Hf2 Ta2 Ti2 Nb2 V2 C10'
_cell_volume   220.09509435
_cell_formula_units_Z   2
loop_
 _symmetry_equiv_pos_site_id
 _symmetry_equiv_pos_as_xyz
  1  'x, y, z'
loop_
 _atom_site_type_symbol
 _atom_site_label
 _atom_site_symmetry_multiplicity
 _atom_site_fract_x
 _atom_site_fract_y
 _atom_site_fract_z
 _atom_site_occupancy
  C  C0  1  0.70691641  0.00000000  0.90931697  1
  C  C1  1  0.49580054  0.00000000  0.49670014  1
  C  C2  1  0.60042793  0.50000000  0.18711934  1
  C  C3  1  0.89818088  0.00000000  0.28869529  1
  C  C4  1  0.99719502  0.50000000  0.00039787  1
  C  C5  1  0.29750757  0.00000000  0.10053513  1
  C  C6  1  0.40462460  0.50000000  0.81013108  1
  C  C7  1  0.80457667  0.50000000  0.60566888  1
  C  C8  1  0.10222974  0.00000000  0.70723103  1
  C  C9  1  0.19665105  0.50000000  0.39393617  1
  Hf  Hf10  1  0.49945637  0.50000000  0.49771570  1
  Hf  Hf11  1  0.80061997  0.00000000  0.60256704  1
  Nb  Nb12  1  0.40234151  0.00000000  0.81117436  1
  Nb  Nb13  1  0.09828991  0.50000000  0.71177168  1
  Ta  Ta14  1  0.19963645  0.00000000  0.39142756  1
  Ta  Ta15  1  0.89970019  0.50000000  0.28849209  1
  Ti  Ti16  1  0.30344427  0.50000000  0.09813007  1
  Ti  Ti17  1  0.60372701  0.00000000  0.19543821  1
  V  V18  1  0.69676586  0.50000000  0.90554529  1
  V  V19  1  0.99190802  0.00000000  0.99800607  1
