# generated using pymatgen
data_TaAl11N12
_symmetry_space_group_name_H-M   'P 1'
_cell_length_a   5.02461306
_cell_length_b   5.47756934
_cell_length_c   9.52339595
_cell_angle_alpha   90.00000295
_cell_angle_beta   90.00000000
_cell_angle_gamma   90.00627092
_symmetry_Int_Tables_number   1
_chemical_formula_structural   TaAl11N12
_chemical_formula_sum   'Ta1 Al11 N12'
_cell_volume   262.10924870
_cell_formula_units_Z   1
loop_
 _symmetry_equiv_pos_site_id
 _symmetry_equiv_pos_as_xyz
  1  'x, y, z'
loop_
 _atom_site_type_symbol
 _atom_site_label
 _atom_site_symmetry_multiplicity
 _atom_site_fract_x
 _atom_site_fract_y
 _atom_site_fract_z
 _atom_site_occupancy
  Al  Al0  1  0.00879022  0.16450006  0.83891557  1
  Al  Al1  1  0.50256917  0.83281951  0.16666675  1
  Al  Al2  1  0.49998160  0.33299769  0.00632389  1
  Al  Al3  1  0.00097151  0.16470770  0.16666667  1
  Al  Al4  1  0.00210287  0.66485113  0.33211839  1
  Al  Al5  1  0.00878990  0.16450012  0.49441780  1
  Al  Al6  1  0.01037340  0.67750614  0.66666684  1
  Al  Al7  1  0.00210278  0.66485125  0.00121502  1
  Al  Al8  1  0.49998124  0.33299804  0.32700906  1
  Al  Al9  1  0.49942829  0.83326001  0.49360093  1
  Al  Al10  1  0.49942835  0.83326076  0.83973303  1
  N  N11  1  0.62091864  0.16332311  0.16666655  1
  N  N12  1  0.62077689  0.66233435  0.33108691  1
  N  N13  1  0.62720560  0.15519278  0.48117243  1
  N  N14  1  0.62775680  0.70353796  0.66666735  1
  N  N15  1  0.62720573  0.15519382  0.85215991  1
  N  N16  1  0.62077688  0.66233437  0.00224666  1
  N  N17  1  0.11998226  0.83266003  0.16666664  1
  N  N18  1  0.12134745  0.33394417  0.33034889  1
  N  N19  1  0.12211884  0.83224640  0.49710170  1
  N  N20  1  0.06734060  0.33328004  0.66666686  1
  N  N21  1  0.12211922  0.83224650  0.83623190  1
  N  N22  1  0.12134766  0.33394423  0.00298438  1
  Ta  Ta23  1  0.54658409  0.33350982  0.66666586  1
