# generated using pymatgen
data_Al11ReN12
_symmetry_space_group_name_H-M   'P 1'
_cell_length_a   5.02661927
_cell_length_b   5.80260839
_cell_length_c   7.11380533
_cell_angle_alpha   90.00000000
_cell_angle_beta   90.04983388
_cell_angle_gamma   90.00000000
_symmetry_Int_Tables_number   1
_chemical_formula_structural   Al11ReN12
_chemical_formula_sum   'Al11 Re1 N12'
_cell_volume   207.49186091
_cell_formula_units_Z   1
loop_
 _symmetry_equiv_pos_site_id
 _symmetry_equiv_pos_as_xyz
  1  'x, y, z'
loop_
 _atom_site_type_symbol
 _atom_site_label
 _atom_site_symmetry_multiplicity
 _atom_site_fract_x
 _atom_site_fract_y
 _atom_site_fract_z
 _atom_site_occupancy
  Al  Al0  1  0.49986233  0.24765257  0.99896057  1
  Al  Al1  1  0.33173046  -0.00000559  0.66845136  1
  Al  Al2  1  0.16673789  0.75249566  0.33333753  1
  Al  Al3  1  0.49983259  0.75236903  0.99894380  1
  Al  Al4  1  0.33474133  0.50001245  0.66917475  1
  Al  Al5  1  0.00160285  0.00000559  0.99821533  1
  Al  Al6  1  0.83347098  0.75234736  0.66770612  1
  Al  Al7  1  0.99859198  0.49998749  0.99749188  1
  Al  Al8  1  0.16659543  0.24750427  0.33332909  1
  Al  Al9  1  0.83350072  0.24763096  0.66772289  1
  Al  Al10  1  0.66666663  0.00000000  0.33333331  1
  Re  Re11  1  0.66666663  0.49999997  0.33333331  1
  N  N12  1  0.16667089  0.24837475  0.83331695  1
  N  N13  1  0.49325869  0.24088152  0.50780962  1
  N  N14  1  0.33791804  -0.00001122  0.16808516  1
  N  N15  1  0.16666241  0.75162524  0.83334967  1
  N  N16  1  0.49321866  0.75918221  0.50785860  1
  N  N17  1  0.31893514  0.49998021  0.16035523  1
  N  N18  1  0.84011462  0.24081772  0.15880803  1
  N  N19  1  0.66666669  0.00000000  0.83333331  1
  N  N20  1  0.99541527  0.00001122  0.49858150  1
  N  N21  1  0.84007459  0.75911841  0.15885701  1
  N  N22  1  0.66666669  0.49999997  0.83333331  1
  N  N23  1  0.01439817  0.50001973  0.50631143  1
