# generated using pymatgen
data_Al11VN12
_symmetry_space_group_name_H-M   'P 1'
_cell_length_a   5.01626863
_cell_length_b   5.44778868
_cell_length_c   9.44680225
_cell_angle_alpha   90.00000291
_cell_angle_beta   90.00000000
_cell_angle_gamma   89.99806525
_symmetry_Int_Tables_number   1
_chemical_formula_structural   Al11VN12
_chemical_formula_sum   'Al11 V1 N12'
_cell_volume   258.15816354
_cell_formula_units_Z   1
loop_
 _symmetry_equiv_pos_site_id
 _symmetry_equiv_pos_as_xyz
  1  'x, y, z'
loop_
 _atom_site_type_symbol
 _atom_site_label
 _atom_site_symmetry_multiplicity
 _atom_site_fract_x
 _atom_site_fract_y
 _atom_site_fract_z
 _atom_site_occupancy
  Al  Al0  1  0.00514364  0.16584732  0.83547757  1
  Al  Al1  1  0.50344151  0.83332185  0.16666667  1
  Al  Al2  1  0.50228976  0.33351710  0.00308164  1
  Al  Al3  1  0.00302563  0.16615457  0.16666667  1
  Al  Al4  1  0.00303449  0.66614651  0.33274745  1
  Al  Al5  1  0.00514364  0.16584732  0.49785576  1
  Al  Al6  1  0.00495980  0.67035444  0.66666667  1
  Al  Al7  1  0.00303449  0.66614651  0.00058588  1
  Al  Al8  1  0.50228976  0.33351710  0.33025169  1
  Al  Al9  1  0.50166654  0.83314240  0.49699999  1
  Al  Al10  1  0.50166654  0.83314240  0.83633334  1
  N  N11  1  0.62188167  0.16514005  0.16666667  1
  N  N12  1  0.62134212  0.66486552  0.33212504  1
  N  N13  1  0.62383717  0.16150516  0.49135484  1
  N  N14  1  0.62277923  0.68277616  0.66666667  1
  N  N15  1  0.62383717  0.16150516  0.84197849  1
  N  N16  1  0.62134212  0.66486552  0.00120829  1
  N  N17  1  0.12131421  0.83343919  0.16666667  1
  N  N18  1  0.12176632  0.33389341  0.33213754  1
  N  N19  1  0.12151662  0.83265066  0.49883231  1
  N  N20  1  0.10453443  0.33312175  0.66666667  1
  N  N21  1  0.12151662  0.83265066  0.83450102  1
  N  N22  1  0.12176632  0.33389341  0.00119579  1
  V  V23  1  0.51687023  0.33255582  0.66666667  1
