# generated using pymatgen
data_MnAl11N12
_symmetry_space_group_name_H-M   'P 1'
_cell_length_a   5.01057535
_cell_length_b   5.43361668
_cell_length_c   9.40067807
_cell_angle_alpha   90.00000286
_cell_angle_beta   90.00000000
_cell_angle_gamma   89.99235025
_symmetry_Int_Tables_number   1
_chemical_formula_structural   MnAl11N12
_chemical_formula_sum   'Mn1 Al11 N12'
_cell_volume   255.93858897
_cell_formula_units_Z   1
loop_
 _symmetry_equiv_pos_site_id
 _symmetry_equiv_pos_as_xyz
  1  'x, y, z'
loop_
 _atom_site_type_symbol
 _atom_site_label
 _atom_site_symmetry_multiplicity
 _atom_site_fract_x
 _atom_site_fract_y
 _atom_site_fract_z
 _atom_site_occupancy
  Al  Al0  1  0.00445074  0.16505173  0.83580714  1
  Al  Al1  1  0.50225529  0.83436599  0.16666667  1
  Al  Al2  1  0.50132615  0.33494408  0.00241131  1
  Al  Al3  1  0.00148810  0.16654926  0.16666667  1
  Al  Al4  1  0.00212151  0.66642919  0.33272203  1
  Al  Al5  1  0.00445074  0.16505173  0.49752619  1
  Al  Al6  1  0.00569414  0.67002248  0.66666667  1
  Al  Al7  1  0.00212151  0.66642919  0.00061130  1
  Al  Al8  1  0.50132615  0.33494408  0.33092202  1
  Al  Al9  1  0.50248603  0.83229626  0.49790162  1
  Al  Al10  1  0.50248603  0.83229626  0.83543171  1
  N  N11  1  0.62064916  0.16612939  0.16666667  1
  N  N12  1  0.62104058  0.66556875  0.33205501  1
  N  N13  1  0.62417748  0.16121687  0.49066815  1
  N  N14  1  0.62603353  0.68164264  0.66666667  1
  N  N15  1  0.62417748  0.16121687  0.84266518  1
  N  N16  1  0.62104058  0.66556875  0.00127832  1
  N  N17  1  0.12046646  0.83408687  0.16666667  1
  N  N18  1  0.12111528  0.33434382  0.33230482  1
  N  N19  1  0.12221996  0.83253617  0.49901450  1
  N  N20  1  0.11187032  0.33166447  0.66666667  1
  N  N21  1  0.12221996  0.83253617  0.83431883  1
  N  N22  1  0.12111528  0.33434382  0.00102851  1
  Mn  Mn23  1  0.51366756  0.33076518  0.66666667  1
