# generated using pymatgen
data_TiNbN2
_symmetry_space_group_name_H-M   'P 1'
_cell_length_a   7.19639557
_cell_length_b   7.19639556
_cell_length_c   4.31840529
_cell_angle_alpha   90.00000000
_cell_angle_beta   90.00000000
_cell_angle_gamma   120.00000007
_symmetry_Int_Tables_number   1
_chemical_formula_structural   TiNbN2
_chemical_formula_sum   'Ti4 Nb4 N8'
_cell_volume   193.67969180
_cell_formula_units_Z   4
loop_
 _symmetry_equiv_pos_site_id
 _symmetry_equiv_pos_as_xyz
  1  'x, y, z'
loop_
 _atom_site_type_symbol
 _atom_site_label
 _atom_site_symmetry_multiplicity
 _atom_site_fract_x
 _atom_site_fract_y
 _atom_site_fract_z
 _atom_site_occupancy
  Nb  Nb0  1  0.16666667  0.33333333  0.44100630  1
  Nb  Nb1  1  0.33572970  0.16427030  0.94099595  1
  Nb  Nb2  1  0.33572970  0.67145942  0.94099595  1
  Nb  Nb3  1  0.82854058  0.16427030  0.94099595  1
  N  N4  1  0.16666667  0.33333333  0.94100787  1
  N  N5  1  0.34016601  0.15983399  0.44099159  1
  N  N6  1  0.15609454  0.82804727  0.94100796  1
  N  N7  1  0.34016601  0.68033203  0.44099159  1
  N  N8  1  0.67195273  0.34390546  0.94100796  1
  N  N9  1  0.81966797  0.15983399  0.44099159  1
  N  N10  1  0.67195273  0.82804727  0.94100796  1
  N  N11  1  0.83333333  0.66666667  0.44099158  1
  Ti  Ti12  1  0.16095527  0.83047763  0.44100545  1
  Ti  Ti13  1  0.66952237  0.33904473  0.44100545  1
  Ti  Ti14  1  0.66952237  0.83047763  0.44100545  1
  Ti  Ti15  1  0.83333333  0.66666667  0.94099139  1
