# generated using pymatgen
data_HfTaTiNbVC5
_symmetry_space_group_name_H-M   'P 1'
_cell_length_a   7.01100000
_cell_length_b   4.45300000
_cell_length_c   7.01400000
_cell_angle_alpha   90.00000000
_cell_angle_beta   90.00000000
_cell_angle_gamma   90.00000000
_symmetry_Int_Tables_number   1
_chemical_formula_structural   HfTaTiNbVC5
_chemical_formula_sum   'Hf2 Ta2 Ti2 Nb2 V2 C10'
_cell_volume   218.97696076
_cell_formula_units_Z   2
loop_
 _symmetry_equiv_pos_site_id
 _symmetry_equiv_pos_as_xyz
  1  'x, y, z'
loop_
 _atom_site_type_symbol
 _atom_site_label
 _atom_site_symmetry_multiplicity
 _atom_site_fract_x
 _atom_site_fract_y
 _atom_site_fract_z
 _atom_site_occupancy
  C  C0  1  0.70696921  0.00000000  0.90932844  1
  C  C1  1  0.49584123  0.00000000  0.49667669  1
  C  C2  1  0.60027433  0.50000000  0.18706564  1
  C  C3  1  0.89806261  0.00000000  0.28868404  1
  C  C4  1  0.99722403  0.50000000  0.00039702  1
  C  C5  1  0.29743019  0.00000000  0.10050573  1
  C  C6  1  0.40473132  0.50000000  0.81012640  1
  C  C7  1  0.80453732  0.50000000  0.60571390  1
  C  C8  1  0.10227900  0.00000000  0.70725328  1
  C  C9  1  0.19664143  0.50000000  0.39397180  1
  Hf  Hf10  1  0.49946511  0.50000000  0.49765607  1
  Hf  Hf11  1  0.80062164  0.00000000  0.60254828  1
  Nb  Nb12  1  0.40249592  0.00000000  0.81106739  1
  Nb  Nb13  1  0.09849641  0.50000000  0.71164655  1
  Ta  Ta14  1  0.19951458  0.00000000  0.39164661  1
  Ta  Ta15  1  0.89954020  0.50000000  0.28862329  1
  Ti  Ti16  1  0.30326401  0.50000000  0.09817763  1
  Ti  Ti17  1  0.60354974  0.00000000  0.19545851  1
  V  V18  1  0.69693856  0.50000000  0.90541535  1
  V  V19  1  0.99212315  0.00000000  0.99803733  1
