# generated using pymatgen
data_TiAl11N12
_symmetry_space_group_name_H-M   'P 1'
_cell_length_a   5.01104390
_cell_length_b   5.45637314
_cell_length_c   9.48140340
_cell_angle_alpha   90.00000290
_cell_angle_beta   90.00000000
_cell_angle_gamma   89.95051499
_symmetry_Int_Tables_number   1
_chemical_formula_structural   TiAl11N12
_chemical_formula_sum   'Ti1 Al11 N12'
_cell_volume   259.24162323
_cell_formula_units_Z   1
loop_
 _symmetry_equiv_pos_site_id
 _symmetry_equiv_pos_as_xyz
  1  'x, y, z'
loop_
 _atom_site_type_symbol
 _atom_site_label
 _atom_site_symmetry_multiplicity
 _atom_site_fract_x
 _atom_site_fract_y
 _atom_site_fract_z
 _atom_site_occupancy
  Al  Al0  1  0.00587598  0.16433906  0.83643227  1
  Al  Al1  1  0.50243377  0.83386123  0.16666667  1
  Al  Al2  1  0.50106797  0.33491751  0.00484632  1
  Al  Al3  1  0.00158542  0.16560896  0.16666667  1
  Al  Al4  1  0.00225782  0.66591138  0.33253868  1
  Al  Al5  1  0.00587598  0.16433906  0.49690106  1
  Al  Al6  1  0.00705956  0.67188015  0.66666667  1
  Al  Al7  1  0.00225782  0.66591138  0.00079465  1
  Al  Al8  1  0.50106797  0.33491751  0.32848701  1
  Al  Al9  1  0.50246117  0.83342591  0.49704346  1
  Al  Al10  1  0.50246117  0.83342591  0.83628987  1
  N  N11  1  0.62029021  0.16531245  0.16666667  1
  N  N12  1  0.62010159  0.66536239  0.33180164  1
  N  N13  1  0.62381589  0.16213982  0.48714606  1
  N  N14  1  0.62549040  0.68949562  0.66666667  1
  N  N15  1  0.62381589  0.16213982  0.84618727  1
  N  N16  1  0.62010159  0.66536239  0.00153169  1
  N  N17  1  0.11980674  0.83307119  0.16666667  1
  N  N18  1  0.12050743  0.33360981  0.33162420  1
  N  N19  1  0.12201616  0.83201525  0.49811070  1
  N  N20  1  0.09905599  0.33170171  0.66666667  1
  N  N21  1  0.12201616  0.83201525  0.83522263  1
  N  N22  1  0.12050743  0.33360981  0.00170913  1
  Ti  Ti23  1  0.52806986  0.32562641  0.66666667  1
