# generated using pymatgen
data_Al11VN12
_symmetry_space_group_name_H-M   'P 1'
_cell_length_a   5.01626863
_cell_length_b   5.44778868
_cell_length_c   9.44680225
_cell_angle_alpha   90.00000291
_cell_angle_beta   90.00000000
_cell_angle_gamma   89.99806525
_symmetry_Int_Tables_number   1
_chemical_formula_structural   Al11VN12
_chemical_formula_sum   'Al11 V1 N12'
_cell_volume   258.15816354
_cell_formula_units_Z   1
loop_
 _symmetry_equiv_pos_site_id
 _symmetry_equiv_pos_as_xyz
  1  'x, y, z'
loop_
 _atom_site_type_symbol
 _atom_site_label
 _atom_site_symmetry_multiplicity
 _atom_site_fract_x
 _atom_site_fract_y
 _atom_site_fract_z
 _atom_site_occupancy
  Al  Al0  1  0.00514362  0.16584724  0.83547765  1
  Al  Al1  1  0.50344157  0.83332178  0.16666667  1
  Al  Al2  1  0.50228976  0.33351714  0.00308177  1
  Al  Al3  1  0.00302555  0.16615468  0.16666667  1
  Al  Al4  1  0.00303443  0.66614658  0.33274742  1
  Al  Al5  1  0.00514362  0.16584724  0.49785568  1
  Al  Al6  1  0.00495973  0.67035445  0.66666667  1
  Al  Al7  1  0.00303443  0.66614658  0.00058591  1
  Al  Al8  1  0.50228976  0.33351714  0.33025156  1
  Al  Al9  1  0.50166631  0.83314235  0.49699983  1
  Al  Al10  1  0.50166631  0.83314235  0.83633350  1
  N  N11  1  0.62188159  0.16513999  0.16666667  1
  N  N12  1  0.62134199  0.66486547  0.33212440  1
  N  N13  1  0.62383715  0.16150510  0.49135394  1
  N  N14  1  0.62277917  0.68277624  0.66666667  1
  N  N15  1  0.62383715  0.16150510  0.84197939  1
  N  N16  1  0.62134199  0.66486547  0.00120893  1
  N  N17  1  0.12131416  0.83343913  0.16666667  1
  N  N18  1  0.12176624  0.33389366  0.33213691  1
  N  N19  1  0.12151647  0.83265054  0.49883169  1
  N  N20  1  0.10453418  0.33312169  0.66666667  1
  N  N21  1  0.12151647  0.83265054  0.83450164  1
  N  N22  1  0.12176624  0.33389366  0.00119642  1
  V  V23  1  0.51687213  0.33255588  0.66666667  1
