# generated using pymatgen
data_HfTi15N16
_symmetry_space_group_name_H-M   'P 1'
_cell_length_a   7.07696948
_cell_length_b   7.07696948
_cell_length_c   8.51034260
_cell_angle_alpha   90.00000000
_cell_angle_beta   90.00000000
_cell_angle_gamma   120.00000001
_symmetry_Int_Tables_number   1
_chemical_formula_structural   HfTi15N16
_chemical_formula_sum   'Hf1 Ti15 N16'
_cell_volume   369.12403172
_cell_formula_units_Z   1
loop_
 _symmetry_equiv_pos_site_id
 _symmetry_equiv_pos_as_xyz
  1  'x, y, z'
loop_
 _atom_site_type_symbol
 _atom_site_label
 _atom_site_symmetry_multiplicity
 _atom_site_fract_x
 _atom_site_fract_y
 _atom_site_fract_z
 _atom_site_occupancy
  Hf  Hf0  1  0.16666667  0.33333333  0.22048309  1
  Ti  Ti1  1  0.33493596  0.16506404  0.96599943  1
  Ti  Ti2  1  0.16666667  0.33333333  0.72062734  1
  Ti  Ti3  1  0.33494623  0.16505377  0.47510890  1
  Ti  Ti4  1  0.16510017  0.83255008  0.22035612  1
  Ti  Ti5  1  0.33493596  0.66987192  0.96599943  1
  Ti  Ti6  1  0.16572026  0.83286013  0.72062962  1
  Ti  Ti7  1  0.33494623  0.66989248  0.47510890  1
  Ti  Ti8  1  0.66744992  0.33489983  0.22035612  1
  Ti  Ti9  1  0.83012808  0.16506404  0.96599943  1
  Ti  Ti10  1  0.66713987  0.33427974  0.72062962  1
  Ti  Ti11  1  0.83010752  0.16505377  0.47510890  1
  Ti  Ti12  1  0.66744992  0.83255008  0.22035612  1
  Ti  Ti13  1  0.83333333  0.66666667  0.97234192  1
  Ti  Ti14  1  0.66713987  0.83286013  0.72062962  1
  Ti  Ti15  1  0.83333333  0.66666667  0.46849582  1
  N  N16  1  0.16666667  0.33333333  0.47475620  1
  N  N17  1  0.33912188  0.16087812  0.22047348  1
  N  N18  1  0.16666667  0.33333333  0.96629593  1
  N  N19  1  0.33374868  0.16625132  0.72051780  1
  N  N20  1  0.16661094  0.83330547  0.47143007  1
  N  N21  1  0.33912188  0.67824375  0.22047348  1
  N  N22  1  0.16660008  0.83330003  0.96952678  1
  N  N23  1  0.33374868  0.66749735  0.72051780  1
  N  N24  1  0.66669453  0.33338906  0.47143007  1
  N  N25  1  0.82175625  0.16087812  0.22047348  1
  N  N26  1  0.66669997  0.33339992  0.96952678  1
  N  N27  1  0.83250265  0.16625132  0.72051780  1
  N  N28  1  0.66669453  0.83330547  0.47143007  1
  N  N29  1  0.83333333  0.66666667  0.22041570  1
  N  N30  1  0.66669997  0.83330003  0.96952678  1
  N  N31  1  0.83333333  0.66666667  0.72045743  1
