# generated using pymatgen
data_HfTaTiNbWC5
_symmetry_space_group_name_H-M   'P 1'
_cell_length_a   7.06600000
_cell_length_b   4.46200000
_cell_length_c   7.06200000
_cell_angle_alpha   90.00000000
_cell_angle_beta   90.00000000
_cell_angle_gamma   90.00000000
_symmetry_Int_Tables_number   1
_chemical_formula_structural   HfTaTiNbWC5
_chemical_formula_sum   'Hf2 Ta2 Ti2 Nb2 W2 C10'
_cell_volume   222.65421050
_cell_formula_units_Z   2
loop_
 _symmetry_equiv_pos_site_id
 _symmetry_equiv_pos_as_xyz
  1  'x, y, z'
loop_
 _atom_site_type_symbol
 _atom_site_label
 _atom_site_symmetry_multiplicity
 _atom_site_fract_x
 _atom_site_fract_y
 _atom_site_fract_z
 _atom_site_occupancy
  C  C0  1  0.70485085  0.00000000  0.90410580  1
  C  C1  1  0.49729300  0.00000000  0.49275625  1
  C  C2  1  0.59882224  0.50000000  0.19713731  1
  C  C3  1  0.90084768  0.00000000  0.29793231  1
  C  C4  1  0.00270944  0.50000000  0.00784145  1
  C  C5  1  0.30156346  0.00000000  0.10812981  1
  C  C6  1  0.40368329  0.50000000  0.80272560  1
  C  C7  1  0.79732500  0.50000000  0.59864935  1
  C  C8  1  0.09609339  0.00000000  0.69977902  1
  C  C9  1  0.19526765  0.50000000  0.39227811  1
  Hf  Hf10  1  0.40158329  0.00000000  0.80521641  1
  Hf  Hf11  1  0.10068526  0.50000000  0.69838374  1
  Nb  Nb12  1  0.50270193  0.50000000  0.49250159  1
  Nb  Nb13  1  0.79611287  0.00000000  0.59116103  1
  Ta  Ta14  1  0.69944909  0.50000000  0.90454910  1
  Ta  Ta15  1  0.00183412  0.00000000  0.00553670  1
  Ti  Ti16  1  0.30554282  0.50000000  0.10613947  1
  Ti  Ti17  1  0.59662706  0.00000000  0.20056593  1
  W  W18  1  0.21029563  0.00000000  0.39853822  1
  W  W19  1  0.88671195  0.50000000  0.29607277  1
