# generated using pymatgen
data_HfTaTiNbWC5
_symmetry_space_group_name_H-M   'P 1'
_cell_length_a   7.07600000
_cell_length_b   4.47200000
_cell_length_c   7.07200000
_cell_angle_alpha   90.00000000
_cell_angle_beta   90.00000000
_cell_angle_gamma   90.00000000
_symmetry_Int_Tables_number   1
_chemical_formula_structural   HfTaTiNbWC5
_chemical_formula_sum   'Hf2 Ta2 Ti2 Nb2 W2 C10'
_cell_volume   223.78546278
_cell_formula_units_Z   2
loop_
 _symmetry_equiv_pos_site_id
 _symmetry_equiv_pos_as_xyz
  1  'x, y, z'
loop_
 _atom_site_type_symbol
 _atom_site_label
 _atom_site_symmetry_multiplicity
 _atom_site_fract_x
 _atom_site_fract_y
 _atom_site_fract_z
 _atom_site_occupancy
  C  C0  1  0.70485828  0.00000000  0.90404024  1
  C  C1  1  0.49729563  0.00000000  0.49278539  1
  C  C2  1  0.59889379  0.50000000  0.19713236  1
  C  C3  1  0.90094006  0.00000000  0.29795154  1
  C  C4  1  0.00252138  0.50000000  0.00784668  1
  C  C5  1  0.30144922  0.00000000  0.10818146  1
  C  C6  1  0.40373359  0.50000000  0.80267898  1
  C  C7  1  0.79733835  0.50000000  0.59859111  1
  C  C8  1  0.09608586  0.00000000  0.69979776  1
  C  C9  1  0.19532259  0.50000000  0.39234064  1
  Hf  Hf10  1  0.40157416  0.00000000  0.80531239  1
  Hf  Hf11  1  0.10067353  0.50000000  0.69837870  1
  Nb  Nb12  1  0.50281085  0.50000000  0.49243949  1
  Nb  Nb13  1  0.79612402  0.00000000  0.59098305  1
  Ta  Ta14  1  0.69935178  0.50000000  0.90458475  1
  Ta  Ta15  1  0.00168416  0.00000000  0.00563654  1
  Ti  Ti16  1  0.30556179  0.50000000  0.10627771  1
  Ti  Ti17  1  0.59657686  0.00000000  0.20057827  1
  W  W18  1  0.21063040  0.00000000  0.39851169  1
  W  W19  1  0.88657374  0.50000000  0.29595123  1
