# generated using pymatgen
data_Ti11CoN12
_symmetry_space_group_name_H-M   'P 1'
_cell_length_a   5.20141955
_cell_length_b   6.00127495
_cell_length_c   7.35193214
_cell_angle_alpha   90.00000000
_cell_angle_beta   90.11375998
_cell_angle_gamma   90.00000000
_symmetry_Int_Tables_number   1
_chemical_formula_structural   Ti11CoN12
_chemical_formula_sum   'Ti11 Co1 N12'
_cell_volume   229.49120378
_cell_formula_units_Z   1
loop_
 _symmetry_equiv_pos_site_id
 _symmetry_equiv_pos_as_xyz
  1  'x, y, z'
loop_
 _atom_site_type_symbol
 _atom_site_label
 _atom_site_symmetry_multiplicity
 _atom_site_fract_x
 _atom_site_fract_y
 _atom_site_fract_z
 _atom_site_occupancy
  Ti  Ti0  1  0.50172575  0.25025172  0.00546663  1
  Ti  Ti1  1  0.32129192  -0.00004077  0.67266791  1
  Ti  Ti2  1  0.16664149  0.74580108  0.33331224  1
  Ti  Ti3  1  0.50182515  0.74975838  0.00541378  1
  Ti  Ti4  1  0.34512285  0.49996663  0.67179863  1
  Ti  Ti5  1  0.01204139  0.00004077  0.99399878  1
  Ti  Ti6  1  0.83160756  0.74974821  0.66120006  1
  Ti  Ti7  1  0.98821046  0.50003331  0.99486800  1
  Ti  Ti8  1  0.16669183  0.25419885  0.33335438  1
  Ti  Ti9  1  0.83150816  0.25024161  0.66125291  1
  Ti  Ti10  1  0.66666663  -0.00000000  0.33333331  1
  Co  Co11  1  0.66666663  0.49999997  0.33333331  1
  N  N12  1  0.16670697  0.25227856  0.83333658  1
  N  N13  1  0.49661638  0.24699692  0.50152370  1
  N  N14  1  0.33280211  -0.00002372  0.16844321  1
  N  N15  1  0.16662633  0.74772143  0.83333004  1
  N  N16  1  0.49663438  0.75303042  0.50155950  1
  N  N17  1  0.32830052  0.50000121  0.16478447  1
  N  N18  1  0.83669890  0.24696951  0.16510713  1
  N  N19  1  0.66666669  -0.00000000  0.83333331  1
  N  N20  1  0.00053120  0.00002372  0.49822345  1
  N  N21  1  0.83671690  0.75300301  0.16514293  1
  N  N22  1  0.66666669  0.49999997  0.83333331  1
  N  N23  1  0.00503279  0.49999873  0.50188219  1
