# generated using pymatgen
data_HfTaTiNbWC5
_symmetry_space_group_name_H-M   'P 1'
_cell_length_a   7.09100000
_cell_length_b   4.48700000
_cell_length_c   7.08700000
_cell_angle_alpha   90.00000000
_cell_angle_beta   90.00000000
_cell_angle_gamma   90.00000000
_symmetry_Int_Tables_number   1
_chemical_formula_structural   HfTaTiNbWC5
_chemical_formula_sum   'Hf2 Ta2 Ti2 Nb2 W2 C10'
_cell_volume   225.48932558
_cell_formula_units_Z   2
loop_
 _symmetry_equiv_pos_site_id
 _symmetry_equiv_pos_as_xyz
  1  'x, y, z'
loop_
 _atom_site_type_symbol
 _atom_site_label
 _atom_site_symmetry_multiplicity
 _atom_site_fract_x
 _atom_site_fract_y
 _atom_site_fract_z
 _atom_site_occupancy
  C  C0  1  0.70462529  0.00000000  0.90758287  1
  C  C1  1  0.49623424  0.00000000  0.49735880  1
  C  C2  1  0.59874778  0.50000000  0.19169056  1
  C  C3  1  0.89772688  0.00000000  0.29212980  1
  C  C4  1  0.99892800  0.50000000  0.00206990  1
  C  C5  1  0.30098854  0.00000000  0.10288147  1
  C  C6  1  0.40266524  0.50000000  0.80715557  1
  C  C7  1  0.80389175  0.50000000  0.60025646  1
  C  C8  1  0.10267039  0.00000000  0.70152084  1
  C  C9  1  0.19510806  0.50000000  0.39608858  1
  Hf  Hf10  1  0.49845509  0.50000000  0.49452526  1
  Hf  Hf11  1  0.79929089  0.00000000  0.60168667  1
  Nb  Nb12  1  0.39701174  0.00000000  0.80764632  1
  Nb  Nb13  1  0.10383519  0.50000000  0.70928630  1
  Ta  Ta14  1  0.20082917  0.00000000  0.39536305  1
  Ta  Ta15  1  0.89860542  0.50000000  0.29419930  1
  Ti  Ti16  1  0.30345579  0.50000000  0.09932247  1
  Ti  Ti17  1  0.59441717  0.00000000  0.19347949  1
  W  W18  1  0.68889288  0.50000000  0.90155408  1
  W  W19  1  0.01362050  0.00000000  0.00422223  1
