# generated using pymatgen
data_Ti15CoN16
_symmetry_space_group_name_H-M   'P 1'
_cell_length_a   5.99927605
_cell_length_b   5.99927605
_cell_length_c   8.48520219
_cell_angle_alpha   90.00000000
_cell_angle_beta   90.00000000
_cell_angle_gamma   90.00000000
_symmetry_Int_Tables_number   1
_chemical_formula_structural   Ti15CoN16
_chemical_formula_sum   'Ti15 Co1 N16'
_cell_volume   305.39356894
_cell_formula_units_Z   1
loop_
 _symmetry_equiv_pos_site_id
 _symmetry_equiv_pos_as_xyz
  1  'x, y, z'
loop_
 _atom_site_type_symbol
 _atom_site_label
 _atom_site_symmetry_multiplicity
 _atom_site_fract_x
 _atom_site_fract_y
 _atom_site_fract_z
 _atom_site_occupancy
  Co  Co0  1  0.25000000  0.75000000  0.75000000  1
  N  N1  1  0.74997270  0.75009720  0.49919754  1
  N  N2  1  0.74997975  0.24997060  0.50264972  1
  N  N3  1  0.24999536  0.74998437  0.49967555  1
  N  N4  1  0.25003688  0.24993039  0.49920710  1
  N  N5  1  0.49933409  0.50067633  0.24997088  1
  N  N6  1  0.49932282  0.99933459  0.25006463  1
  N  N7  1  0.75002730  0.74990280  0.00080246  1
  N  N8  1  0.75002025  0.25002940  0.99735028  1
  N  N9  1  0.00067718  0.50066541  0.24993537  1
  N  N10  1  0.00066591  0.99932367  0.25002912  1
  N  N11  1  0.25000464  0.75001563  0.00032445  1
  N  N12  1  0.24996312  0.25006961  0.00079290  1
  N  N13  1  0.50265103  0.49732976  0.75002087  1
  N  N14  1  0.50265713  0.00265003  0.74992620  1
  N  N15  1  0.99734287  0.49734997  0.75007380  1
  N  N16  1  0.99734897  0.00267024  0.74997913  1
  Ti  Ti17  1  0.75000000  0.25000000  0.75000000  1
  Ti  Ti18  1  0.75000000  0.75000000  0.75000000  1
  Ti  Ti19  1  0.25000000  0.25000000  0.75000000  1
  Ti  Ti20  1  0.49907232  0.99907946  0.50231568  1
  Ti  Ti21  1  0.49901798  0.50098334  0.50213611  1
  Ti  Ti22  1  0.75000000  0.25000000  0.25000000  1
  Ti  Ti23  1  0.75000000  0.75000000  0.25000000  1
  Ti  Ti24  1  0.00098567  0.99901852  0.50214856  1
  Ti  Ti25  1  0.00092612  0.50092324  0.50228315  1
  Ti  Ti26  1  0.25000000  0.25000000  0.25000000  1
  Ti  Ti27  1  0.25000000  0.75000000  0.25000000  1
  Ti  Ti28  1  0.49907388  0.99907676  0.99771685  1
  Ti  Ti29  1  0.49901433  0.50098148  0.99785144  1
  Ti  Ti30  1  0.00098202  0.99901666  0.99786389  1
  Ti  Ti31  1  0.00092768  0.50092054  0.99768432  1
