# generated using pymatgen
data_Al15VN16
_symmetry_space_group_name_H-M   'P 1'
_cell_length_a   6.28395356
_cell_length_b   6.28395356
_cell_length_c   10.04451784
_cell_angle_alpha   90.00000000
_cell_angle_beta   90.00000000
_cell_angle_gamma   120.00000000
_symmetry_Int_Tables_number   1
_chemical_formula_structural   Al15VN16
_chemical_formula_sum   'Al15 V1 N16'
_cell_volume   343.49914459
_cell_formula_units_Z   1
loop_
 _symmetry_equiv_pos_site_id
 _symmetry_equiv_pos_as_xyz
  1  'x, y, z'
loop_
 _atom_site_type_symbol
 _atom_site_label
 _atom_site_symmetry_multiplicity
 _atom_site_fract_x
 _atom_site_fract_y
 _atom_site_fract_z
 _atom_site_occupancy
  V  V0  1  0.16666667  0.33333333  0.24525549  1
  Al  Al1  1  0.33456950  0.16543050  0.99839167  1
  Al  Al2  1  0.16666667  0.33333333  0.75024063  1
  Al  Al3  1  0.33338375  0.16661625  0.50112885  1
  Al  Al4  1  0.16686345  0.83343173  0.25117479  1
  Al  Al5  1  0.33456950  0.66913900  0.99839167  1
  Al  Al6  1  0.16611259  0.83305629  0.74980818  1
  Al  Al7  1  0.33338375  0.66676752  0.50112885  1
  Al  Al8  1  0.66656827  0.33313655  0.25117479  1
  Al  Al9  1  0.83086100  0.16543050  0.99839167  1
  Al  Al10  1  0.66694371  0.33388741  0.74980818  1
  Al  Al11  1  0.83323248  0.16661625  0.50112885  1
  Al  Al12  1  0.66656827  0.83343173  0.25117479  1
  Al  Al13  1  0.83333333  0.66666667  0.00007382  1
  Al  Al14  1  0.66694371  0.83305629  0.74980818  1
  Al  Al15  1  0.83333333  0.66666667  0.50034984  1
  N  N16  1  0.16666667  0.33333333  0.44673619  1
  N  N17  1  0.33905069  0.16094931  0.18842867  1
  N  N18  1  0.16666667  0.33333333  0.94290876  1
  N  N19  1  0.33351893  0.16648107  0.69212033  1
  N  N20  1  0.16682679  0.83341338  0.44165548  1
  N  N21  1  0.33905069  0.67810140  0.18842867  1
  N  N22  1  0.16544365  0.83272182  0.94002565  1
  N  N23  1  0.33351893  0.66703786  0.69212033  1
  N  N24  1  0.66658662  0.33317321  0.44165548  1
  N  N25  1  0.82189860  0.16094931  0.18842867  1
  N  N26  1  0.66727818  0.33455635  0.94002565  1
  N  N27  1  0.83296214  0.16648107  0.69212033  1
  N  N28  1  0.66658662  0.83341338  0.44165548  1
  N  N29  1  0.83333333  0.66666667  0.19160553  1
  N  N30  1  0.66727818  0.83272182  0.94002565  1
  N  N31  1  0.83333333  0.66666667  0.69062889  1
