# generated using pymatgen
data_Al15CrN16
_symmetry_space_group_name_H-M   'P 1'
_cell_length_a   6.27987841
_cell_length_b   6.27987840
_cell_length_c   10.03549265
_cell_angle_alpha   90.00000000
_cell_angle_beta   90.00000000
_cell_angle_gamma   119.99999999
_symmetry_Int_Tables_number   1
_chemical_formula_structural   Al15CrN16
_chemical_formula_sum   'Al15 Cr1 N16'
_cell_volume   342.74552925
_cell_formula_units_Z   1
loop_
 _symmetry_equiv_pos_site_id
 _symmetry_equiv_pos_as_xyz
  1  'x, y, z'
loop_
 _atom_site_type_symbol
 _atom_site_label
 _atom_site_symmetry_multiplicity
 _atom_site_fract_x
 _atom_site_fract_y
 _atom_site_fract_z
 _atom_site_occupancy
  Cr  Cr0  1  0.16666667  0.33333333  0.24690758  1
  Al  Al1  1  0.33462030  0.16537970  0.99910938  1
  Al  Al2  1  0.16666667  0.33333333  0.75044071  1
  Al  Al3  1  0.33376932  0.16623068  0.50037505  1
  Al  Al4  1  0.16572810  0.83286405  0.25122296  1
  Al  Al5  1  0.33462030  0.66924062  0.99910938  1
  Al  Al6  1  0.16614878  0.83307438  0.74964089  1
  Al  Al7  1  0.33376932  0.66753864  0.50037505  1
  Al  Al8  1  0.66713595  0.33427190  0.25122296  1
  Al  Al9  1  0.83075938  0.16537970  0.99910938  1
  Al  Al10  1  0.66692562  0.33385122  0.74964089  1
  Al  Al11  1  0.83246136  0.16623068  0.50037505  1
  Al  Al12  1  0.66713595  0.83286405  0.25122296  1
  Al  Al13  1  0.83333333  0.66666667  0.99995707  1
  Al  Al14  1  0.66692562  0.83307438  0.74964089  1
  Al  Al15  1  0.83333333  0.66666667  0.50040974  1
  N  N16  1  0.16666667  0.33333333  0.44424185  1
  N  N17  1  0.33869983  0.16130017  0.18959625  1
  N  N18  1  0.16666667  0.33333333  0.94280817  1
  N  N19  1  0.33328978  0.16671022  0.69146472  1
  N  N20  1  0.16661352  0.83330675  0.44178808  1
  N  N21  1  0.33869983  0.67739967  0.18959625  1
  N  N22  1  0.16566345  0.83283172  0.93997039  1
  N  N23  1  0.33328978  0.66657957  0.69146472  1
  N  N24  1  0.66669325  0.33338648  0.44178808  1
  N  N25  1  0.82260033  0.16130017  0.18959625  1
  N  N26  1  0.66716828  0.33433655  0.93997039  1
  N  N27  1  0.83342043  0.16671022  0.69146472  1
  N  N28  1  0.66669325  0.83330675  0.44178808  1
  N  N29  1  0.83333333  0.66666667  0.19106103  1
  N  N30  1  0.66716828  0.83283172  0.93997039  1
  N  N31  1  0.83333333  0.66666667  0.69067067  1
