# generated using pymatgen
data_Al15NiN16
_symmetry_space_group_name_H-M   'P 1'
_cell_length_a   6.26293531
_cell_length_b   6.26293531
_cell_length_c   10.05693594
_cell_angle_alpha   90.00000000
_cell_angle_beta   90.00000000
_cell_angle_gamma   119.99999996
_symmetry_Int_Tables_number   1
_chemical_formula_structural   Al15NiN16
_chemical_formula_sum   'Al15 Ni1 N16'
_cell_volume   341.62698426
_cell_formula_units_Z   1
loop_
 _symmetry_equiv_pos_site_id
 _symmetry_equiv_pos_as_xyz
  1  'x, y, z'
loop_
 _atom_site_type_symbol
 _atom_site_label
 _atom_site_symmetry_multiplicity
 _atom_site_fract_x
 _atom_site_fract_y
 _atom_site_fract_z
 _atom_site_occupancy
  Ni  Ni0  1  0.16666667  0.33333333  0.25113541  1
  Al  Al1  1  0.33300782  0.16699218  0.99918613  1
  Al  Al2  1  0.16666667  0.33333333  0.74905380  1
  Al  Al3  1  0.33410288  0.16589712  0.50025197  1
  Al  Al4  1  0.16443862  0.83221931  0.25132225  1
  Al  Al5  1  0.33300782  0.66601564  0.99918613  1
  Al  Al6  1  0.16654002  0.83327001  0.75009107  1
  Al  Al7  1  0.33410288  0.66820577  0.50025197  1
  Al  Al8  1  0.66778069  0.33556138  0.25132225  1
  Al  Al9  1  0.83398436  0.16699218  0.99918613  1
  Al  Al10  1  0.66672999  0.33345998  0.75009107  1
  Al  Al11  1  0.83179423  0.16589712  0.50025197  1
  Al  Al12  1  0.66778069  0.83221931  0.25132225  1
  Al  Al13  1  0.83333333  0.66666667  0.00017523  1
  Al  Al14  1  0.66672999  0.83327001  0.75009107  1
  Al  Al15  1  0.83333333  0.66666667  0.50082921  1
  N  N16  1  0.16666667  0.33333333  0.44722077  1
  N  N17  1  0.33748929  0.16251071  0.18893371  1
  N  N18  1  0.16666667  0.33333333  0.93956472  1
  N  N19  1  0.33366560  0.16633440  0.69085299  1
  N  N20  1  0.16631750  0.83315875  0.44119985  1
  N  N21  1  0.33748929  0.67497859  0.18893371  1
  N  N22  1  0.16618792  0.83309396  0.94027694  1
  N  N23  1  0.33366560  0.66733123  0.69085299  1
  N  N24  1  0.66684125  0.33368250  0.44119985  1
  N  N25  1  0.82502141  0.16251071  0.18893371  1
  N  N26  1  0.66690604  0.33381208  0.94027694  1
  N  N27  1  0.83266877  0.16633440  0.69085299  1
  N  N28  1  0.66684125  0.83315875  0.44119985  1
  N  N29  1  0.83333333  0.66666667  0.19079416  1
  N  N30  1  0.66690604  0.83309396  0.94027694  1
  N  N31  1  0.83333333  0.66666667  0.69088200  1
