# generated using pymatgen
data_Al15MoN16
_symmetry_space_group_name_H-M   'P 1'
_cell_length_a   6.31345012
_cell_length_b   6.31345012
_cell_length_c   10.02219841
_cell_angle_alpha   90.00000000
_cell_angle_beta   90.00000000
_cell_angle_gamma   120.00000000
_symmetry_Int_Tables_number   1
_chemical_formula_structural   Al15MoN16
_chemical_formula_sum   'Al15 Mo1 N16'
_cell_volume   345.96099322
_cell_formula_units_Z   1
loop_
 _symmetry_equiv_pos_site_id
 _symmetry_equiv_pos_as_xyz
  1  'x, y, z'
loop_
 _atom_site_type_symbol
 _atom_site_label
 _atom_site_symmetry_multiplicity
 _atom_site_fract_x
 _atom_site_fract_y
 _atom_site_fract_z
 _atom_site_occupancy
  Mo  Mo0  1  0.16666667  0.33333333  0.21811077  1
  Al  Al1  1  0.33743884  0.16256116  0.99738126  1
  Al  Al2  1  0.16666667  0.33333333  0.75290309  1
  Al  Al3  1  0.33135136  0.16864864  0.50077186  1
  Al  Al4  1  0.16678956  0.83339477  0.25612735  1
  Al  Al5  1  0.33743884  0.67487767  0.99738126  1
  Al  Al6  1  0.16550283  0.83275141  0.74886765  1
  Al  Al7  1  0.33135136  0.66270273  0.50077186  1
  Al  Al8  1  0.66660523  0.33321044  0.25612735  1
  Al  Al9  1  0.82512233  0.16256116  0.99738126  1
  Al  Al10  1  0.66724859  0.33449717  0.74886765  1
  Al  Al11  1  0.83729727  0.16864864  0.50077186  1
  Al  Al12  1  0.66660523  0.83339477  0.25612735  1
  Al  Al13  1  0.83333333  0.66666667  0.00057808  1
  Al  Al14  1  0.66724859  0.83275141  0.74886765  1
  Al  Al15  1  0.83333333  0.66666667  0.50214696  1
  N  N16  1  0.16666667  0.33333333  0.44174452  1
  N  N17  1  0.34702671  0.15297329  0.18740469  1
  N  N18  1  0.16666667  0.33333333  0.95006398  1
  N  N19  1  0.33258702  0.16741298  0.69352749  1
  N  N20  1  0.16664338  0.83332169  0.44518395  1
  N  N21  1  0.34702671  0.69405343  0.18740469  1
  N  N22  1  0.16407865  0.83203932  0.93908937  1
  N  N23  1  0.33258702  0.66517404  0.69352749  1
  N  N24  1  0.66667831  0.33335662  0.44518395  1
  N  N25  1  0.80594657  0.15297329  0.18740469  1
  N  N26  1  0.66796068  0.33592135  0.93908937  1
  N  N27  1  0.83482596  0.16741298  0.69352749  1
  N  N28  1  0.66667831  0.83332169  0.44518395  1
  N  N29  1  0.83333333  0.66666667  0.19378700  1
  N  N30  1  0.66796068  0.83203932  0.93908937  1
  N  N31  1  0.83333333  0.66666667  0.69160470  1
