# generated using pymatgen
data_Al15WN16
_symmetry_space_group_name_H-M   'P 1'
_cell_length_a   6.31246865
_cell_length_b   6.31246865
_cell_length_c   10.01995316
_cell_angle_alpha   90.00000000
_cell_angle_beta   90.00000000
_cell_angle_gamma   119.99999997
_symmetry_Int_Tables_number   1
_chemical_formula_structural   Al15WN16
_chemical_formula_sum   'Al15 W1 N16'
_cell_volume   345.77595658
_cell_formula_units_Z   1
loop_
 _symmetry_equiv_pos_site_id
 _symmetry_equiv_pos_as_xyz
  1  'x, y, z'
loop_
 _atom_site_type_symbol
 _atom_site_label
 _atom_site_symmetry_multiplicity
 _atom_site_fract_x
 _atom_site_fract_y
 _atom_site_fract_z
 _atom_site_occupancy
  W  W0  1  0.16666667  0.33333333  0.21404179  1
  Al  Al1  1  0.33776020  0.16223980  0.99763063  1
  Al  Al2  1  0.16666667  0.33333333  0.75356469  1
  Al  Al3  1  0.33116619  0.16883381  0.50052227  1
  Al  Al4  1  0.16635873  0.83317936  0.25714742  1
  Al  Al5  1  0.33776020  0.67552042  0.99763063  1
  Al  Al6  1  0.16550518  0.83275258  0.74885086  1
  Al  Al7  1  0.33116619  0.66233241  0.50052227  1
  Al  Al8  1  0.66682064  0.33364127  0.25714742  1
  Al  Al9  1  0.82447958  0.16223980  0.99763063  1
  Al  Al10  1  0.66724742  0.33449482  0.74885086  1
  Al  Al11  1  0.83766759  0.16883381  0.50052227  1
  Al  Al12  1  0.66682064  0.83317936  0.25714742  1
  Al  Al13  1  0.83333333  0.66666667  0.00071591  1
  Al  Al14  1  0.66724742  0.83275258  0.74885086  1
  Al  Al15  1  0.83333333  0.66666667  0.50284117  1
  N  N16  1  0.16666667  0.33333333  0.43815978  1
  N  N17  1  0.34776371  0.15223629  0.18788439  1
  N  N18  1  0.16666667  0.33333333  0.95046517  1
  N  N19  1  0.33226441  0.16773559  0.69321182  1
  N  N20  1  0.16644505  0.83322252  0.44580169  1
  N  N21  1  0.34776371  0.69552741  0.18788439  1
  N  N22  1  0.16414195  0.83207097  0.93901173  1
  N  N23  1  0.33226441  0.66452884  0.69321182  1
  N  N24  1  0.66677748  0.33355495  0.44580169  1
  N  N25  1  0.80447259  0.15223629  0.18788439  1
  N  N26  1  0.66792903  0.33585805  0.93901173  1
  N  N27  1  0.83547116  0.16773559  0.69321182  1
  N  N28  1  0.66677748  0.83322252  0.44580169  1
  N  N29  1  0.83333333  0.66666667  0.19406601  1
  N  N30  1  0.66792903  0.83207097  0.93901173  1
  N  N31  1  0.83333333  0.66666667  0.69196305  1
