# generated using pymatgen
data_Al31OsN32
_symmetry_space_group_name_H-M   'P 1'
_cell_length_a   8.16369708
_cell_length_b   8.16369708
_cell_length_c   8.16369708
_cell_angle_alpha   90.00000000
_cell_angle_beta   90.00000000
_cell_angle_gamma   90.00000000
_symmetry_Int_Tables_number   1
_chemical_formula_structural   Al31OsN32
_chemical_formula_sum   'Al31 Os1 N32'
_cell_volume   544.07734752
_cell_formula_units_Z   1
loop_
 _symmetry_equiv_pos_site_id
 _symmetry_equiv_pos_as_xyz
  1  'x, y, z'
loop_
 _atom_site_type_symbol
 _atom_site_label
 _atom_site_symmetry_multiplicity
 _atom_site_fract_x
 _atom_site_fract_y
 _atom_site_fract_z
 _atom_site_occupancy
  Al  Al0  1  -0.00000000  0.00000000  -0.00000000  1
  Al  Al1  1  -0.00000135  0.24995331  0.24995815  1
  Al  Al2  1  0.24997071  -0.00018182  0.24997103  1
  Al  Al3  1  0.24995658  0.24995205  0.00000027  1
  Al  Al4  1  -0.00000000  0.00000000  0.50000000  1
  Al  Al5  1  -0.00018221  0.24996929  0.75002590  1
  Al  Al6  1  0.24995460  -0.00000161  0.75004509  1
  Al  Al7  1  0.24907998  0.24907877  0.49999764  1
  Al  Al8  1  -0.00000000  0.50000000  -0.00000000  1
  Al  Al9  1  0.00018221  0.75003071  0.24997410  1
  Al  Al10  1  0.24844702  0.49950065  0.24845149  1
  Al  Al11  1  0.24997236  0.75003212  0.00018044  1
  Al  Al12  1  -0.00000000  0.50000000  0.50000000  1
  Al  Al13  1  0.00000135  0.75004669  0.75004185  1
  Al  Al14  1  0.24906734  0.49999969  0.75092826  1
  Al  Al15  1  0.24845350  0.75154740  0.50049670  1
  Al  Al16  1  0.50000000  0.00000000  -0.00000000  1
  Al  Al17  1  0.49999735  0.24907174  0.24907732  1
  Al  Al18  1  0.75004540  0.00000161  0.24995491  1
  Al  Al19  1  0.75002764  0.24996788  -0.00018044  1
  Al  Al20  1  0.50000000  0.00000000  0.50000000  1
  Al  Al21  1  0.49950309  0.24845375  0.75154087  1
  Al  Al22  1  0.75002929  0.00018182  0.75002897  1
  Al  Al23  1  0.75154650  0.24845260  0.49950330  1
  Al  Al24  1  0.50000000  0.50000000  -0.00000000  1
  Al  Al25  1  0.50049691  0.75154625  0.24845913  1
  Al  Al26  1  0.75093266  0.50000031  0.24907174  1
  Al  Al27  1  0.75004342  0.75004795  -0.00000027  1
  Al  Al28  1  0.50000265  0.75092826  0.75092268  1
  Al  Al29  1  0.75155298  0.50049935  0.75154851  1
  Al  Al30  1  0.75092002  0.75092123  0.50000236  1
  N  N31  1  0.25065972  0.25013132  0.25066173  1
  N  N32  1  0.24966153  0.00013449  -0.00013306  1
  N  N33  1  0.00013464  0.24966518  0.00013179  1
  N  N34  1  -0.00013314  0.00013172  0.24966294  1
  N  N35  1  0.25013467  0.25066223  0.74933609  1
  N  N36  1  0.24887765  0.00010388  0.50003443  1
  N  N37  1  0.00010307  0.24888113  0.49996743  1
  N  N38  1  0.00013314  -0.00013172  0.75033706  1
  N  N39  1  0.25006161  0.74993914  0.25005861  1
  N  N40  1  0.24888204  0.49996546  -0.00010281  1
  N  N41  1  -0.00013464  0.75033482  -0.00013179  1
  N  N42  1  -0.00010163  0.49996739  0.24888345  1
  N  N43  1  0.25065955  0.74934007  0.74987112  1
  N  N44  1  0.24034599  0.50080083  0.49920638  1
  N  N45  1  -0.00010307  0.75111887  0.50003257  1
  N  N46  1  0.00010163  0.50003261  0.75111655  1
  N  N47  1  0.74934045  0.25065993  0.25012888  1
  N  N48  1  0.75033847  -0.00013449  0.00013306  1
  N  N49  1  0.49996550  0.24887987  0.00010132  1
  N  N50  1  0.50003442  0.00010093  0.24887783  1
  N  N51  1  0.74993839  0.25006086  0.74994139  1
  N  N52  1  0.75112235  -0.00010388  0.49996557  1
  N  N53  1  0.50080217  0.24033588  0.50079235  1
  N  N54  1  0.49996558  -0.00010093  0.75112217  1
  N  N55  1  0.74986533  0.74933777  0.25066391  1
  N  N56  1  0.75111796  0.50003454  0.00010281  1
  N  N57  1  0.50003450  0.75112013  -0.00010132  1
  N  N58  1  0.49920408  0.50079315  0.24035218  1
  N  N59  1  0.74934028  0.74986868  0.74933827  1
  N  N60  1  0.75965401  0.49919917  0.50079362  1
  N  N61  1  0.49919783  0.75966412  0.49920765  1
  N  N62  1  0.50079592  0.49920685  0.75964782  1
  Os  Os63  1  0.50000000  0.50000000  0.50000000  1
