# generated using pymatgen
data_Al15NiN16
_symmetry_space_group_name_H-M   'P 1'
_cell_length_a   6.26293531
_cell_length_b   6.26293531
_cell_length_c   10.05693594
_cell_angle_alpha   90.00000000
_cell_angle_beta   90.00000000
_cell_angle_gamma   119.99999996
_symmetry_Int_Tables_number   1
_chemical_formula_structural   Al15NiN16
_chemical_formula_sum   'Al15 Ni1 N16'
_cell_volume   341.62698426
_cell_formula_units_Z   1
loop_
 _symmetry_equiv_pos_site_id
 _symmetry_equiv_pos_as_xyz
  1  'x, y, z'
loop_
 _atom_site_type_symbol
 _atom_site_label
 _atom_site_symmetry_multiplicity
 _atom_site_fract_x
 _atom_site_fract_y
 _atom_site_fract_z
 _atom_site_occupancy
  Ni  Ni0  1  0.16666667  0.33333333  0.25113557  1
  Al  Al1  1  0.33300806  0.16699194  0.99918561  1
  Al  Al2  1  0.16666667  0.33333333  0.74905362  1
  Al  Al3  1  0.33410418  0.16589582  0.50025254  1
  Al  Al4  1  0.16443917  0.83221958  0.25132216  1
  Al  Al5  1  0.33300806  0.66601613  0.99918561  1
  Al  Al6  1  0.16654008  0.83327004  0.75009118  1
  Al  Al7  1  0.33410418  0.66820837  0.50025254  1
  Al  Al8  1  0.66778042  0.33556083  0.25132216  1
  Al  Al9  1  0.83398387  0.16699194  0.99918561  1
  Al  Al10  1  0.66672996  0.33345992  0.75009118  1
  Al  Al11  1  0.83179163  0.16589582  0.50025254  1
  Al  Al12  1  0.66778042  0.83221958  0.25132216  1
  Al  Al13  1  0.83333333  0.66666667  0.00017413  1
  Al  Al14  1  0.66672996  0.83327004  0.75009118  1
  Al  Al15  1  0.83333333  0.66666667  0.50082951  1
  N  N16  1  0.16666667  0.33333333  0.44721480  1
  N  N17  1  0.33748390  0.16251610  0.18893590  1
  N  N18  1  0.16666667  0.33333333  0.93956516  1
  N  N19  1  0.33366586  0.16633414  0.69085269  1
  N  N20  1  0.16631790  0.83315895  0.44119983  1
  N  N21  1  0.33748390  0.67496782  0.18893590  1
  N  N22  1  0.16618852  0.83309426  0.94027716  1
  N  N23  1  0.33366586  0.66733174  0.69085269  1
  N  N24  1  0.66684105  0.33368210  0.44119983  1
  N  N25  1  0.82503218  0.16251610  0.18893590  1
  N  N26  1  0.66690574  0.33381148  0.94027716  1
  N  N27  1  0.83266826  0.16633414  0.69085269  1
  N  N28  1  0.66684105  0.83315895  0.44119983  1
  N  N29  1  0.83333333  0.66666667  0.19079428  1
  N  N30  1  0.66690574  0.83309426  0.94027716  1
  N  N31  1  0.83333333  0.66666667  0.69088173  1
