# generated using pymatgen
data_Ti15CoN16
_symmetry_space_group_name_H-M   'P 1'
_cell_length_a   5.99927605
_cell_length_b   5.99927605
_cell_length_c   8.48520219
_cell_angle_alpha   90.00000000
_cell_angle_beta   90.00000000
_cell_angle_gamma   90.00000000
_symmetry_Int_Tables_number   1
_chemical_formula_structural   Ti15CoN16
_chemical_formula_sum   'Ti15 Co1 N16'
_cell_volume   305.39356894
_cell_formula_units_Z   1
loop_
 _symmetry_equiv_pos_site_id
 _symmetry_equiv_pos_as_xyz
  1  'x, y, z'
loop_
 _atom_site_type_symbol
 _atom_site_label
 _atom_site_symmetry_multiplicity
 _atom_site_fract_x
 _atom_site_fract_y
 _atom_site_fract_z
 _atom_site_occupancy
  Co  Co0  1  0.25000000  0.75000000  0.75000000  1
  N  N1  1  0.74999980  0.75000958  0.49921585  1
  N  N2  1  0.75000184  0.25000227  0.50297528  1
  N  N3  1  0.25000742  0.75000792  0.50097069  1
  N  N4  1  0.25001033  0.25000047  0.49922018  1
  N  N5  1  0.49931082  0.50068883  0.25000025  1
  N  N6  1  0.49921182  0.99920945  0.24999566  1
  N  N7  1  0.75000020  0.74999042  0.00078415  1
  N  N8  1  0.74999816  0.24999773  0.99702472  1
  N  N9  1  0.00078818  0.50079055  0.25000434  1
  N  N10  1  0.00068918  0.99931117  0.24999975  1
  N  N11  1  0.24999258  0.74999208  -0.00097069  1
  N  N12  1  0.24998967  0.24999953  0.00077982  1
  N  N13  1  0.50280068  0.49719862  0.74999956  1
  N  N14  1  0.50292341  0.00292644  0.75000286  1
  N  N15  1  0.99707659  0.49707356  0.74999714  1
  N  N16  1  0.99719932  0.00280138  0.75000044  1
  Ti  Ti17  1  0.75000000  0.25000000  0.75000000  1
  Ti  Ti18  1  0.75000000  0.75000000  0.75000000  1
  Ti  Ti19  1  0.25000000  0.25000000  0.75000000  1
  Ti  Ti20  1  0.49926726  0.99926751  0.50229669  1
  Ti  Ti21  1  0.49929335  0.50070811  0.50227809  1
  Ti  Ti22  1  0.75000000  0.25000000  0.25000000  1
  Ti  Ti23  1  0.75000000  0.75000000  0.25000000  1
  Ti  Ti24  1  0.00070811  0.99929364  0.50227835  1
  Ti  Ti25  1  0.00071800  0.50071806  0.50230451  1
  Ti  Ti26  1  0.25000000  0.25000000  0.25000000  1
  Ti  Ti27  1  0.25000000  0.75000000  0.25000000  1
  Ti  Ti28  1  0.49928200  0.99928194  0.99769549  1
  Ti  Ti29  1  0.49929189  0.50070636  0.99772165  1
  Ti  Ti30  1  0.00070665  0.99929189  0.99772191  1
  Ti  Ti31  1  0.00073274  0.50073249  0.99770331  1
