# generated using pymatgen
data_Al15VN16
_symmetry_space_group_name_H-M   'P 1'
_cell_length_a   6.28395356
_cell_length_b   6.28395356
_cell_length_c   10.04451784
_cell_angle_alpha   90.00000000
_cell_angle_beta   90.00000000
_cell_angle_gamma   120.00000000
_symmetry_Int_Tables_number   1
_chemical_formula_structural   Al15VN16
_chemical_formula_sum   'Al15 V1 N16'
_cell_volume   343.49914459
_cell_formula_units_Z   1
loop_
 _symmetry_equiv_pos_site_id
 _symmetry_equiv_pos_as_xyz
  1  'x, y, z'
loop_
 _atom_site_type_symbol
 _atom_site_label
 _atom_site_symmetry_multiplicity
 _atom_site_fract_x
 _atom_site_fract_y
 _atom_site_fract_z
 _atom_site_occupancy
  V  V0  1  0.16666667  0.33333333  0.24525923  1
  Al  Al1  1  0.33456959  0.16543041  0.99839261  1
  Al  Al2  1  0.16666667  0.33333333  0.75024133  1
  Al  Al3  1  0.33338288  0.16661712  0.50112719  1
  Al  Al4  1  0.16686212  0.83343106  0.25117451  1
  Al  Al5  1  0.33456959  0.66913918  0.99839261  1
  Al  Al6  1  0.16611283  0.83305641  0.74980908  1
  Al  Al7  1  0.33338288  0.66676577  0.50112719  1
  Al  Al8  1  0.66656894  0.33313788  0.25117451  1
  Al  Al9  1  0.83086082  0.16543041  0.99839261  1
  Al  Al10  1  0.66694359  0.33388717  0.74980908  1
  Al  Al11  1  0.83323423  0.16661712  0.50112719  1
  Al  Al12  1  0.66656894  0.83343106  0.25117451  1
  Al  Al13  1  0.83333333  0.66666667  0.00007552  1
  Al  Al14  1  0.66694359  0.83305641  0.74980908  1
  Al  Al15  1  0.83333333  0.66666667  0.50034882  1
  N  N16  1  0.16666667  0.33333333  0.44674256  1
  N  N17  1  0.33905513  0.16094487  0.18842640  1
  N  N18  1  0.16666667  0.33333333  0.94290261  1
  N  N19  1  0.33351941  0.16648059  0.69212100  1
  N  N20  1  0.16682641  0.83341319  0.44165907  1
  N  N21  1  0.33905513  0.67811027  0.18842640  1
  N  N22  1  0.16544258  0.83272129  0.94002180  1
  N  N23  1  0.33351941  0.66703884  0.69212100  1
  N  N24  1  0.66658681  0.33317359  0.44165907  1
  N  N25  1  0.82188973  0.16094487  0.18842640  1
  N  N26  1  0.66727871  0.33455742  0.94002180  1
  N  N27  1  0.83296116  0.16648059  0.69212100  1
  N  N28  1  0.66658681  0.83341319  0.44165907  1
  N  N29  1  0.83333333  0.66666667  0.19160607  1
  N  N30  1  0.66727871  0.83272129  0.94002180  1
  N  N31  1  0.83333333  0.66666667  0.69062890  1
