# generated using pymatgen
data_NbAl15N16
_symmetry_space_group_name_H-M   'P 1'
_cell_length_a   5.81072702
_cell_length_b   5.81072702
_cell_length_c   8.22401264
_cell_angle_alpha   90.00000000
_cell_angle_beta   90.00000000
_cell_angle_gamma   90.00000000
_symmetry_Int_Tables_number   1
_chemical_formula_structural   NbAl15N16
_chemical_formula_sum   'Nb1 Al15 N16'
_cell_volume   277.68007366
_cell_formula_units_Z   1
loop_
 _symmetry_equiv_pos_site_id
 _symmetry_equiv_pos_as_xyz
  1  'x, y, z'
loop_
 _atom_site_type_symbol
 _atom_site_label
 _atom_site_symmetry_multiplicity
 _atom_site_fract_x
 _atom_site_fract_y
 _atom_site_fract_z
 _atom_site_occupancy
  Nb  Nb0  1  0.25000000  0.75000000  0.75000000  1
  N  N1  1  0.74999937  0.74999992  0.50007109  1
  N  N2  1  0.74999992  0.25000002  0.49574365  1
  N  N3  1  0.25000016  0.75000085  0.48609667  1
  N  N4  1  0.24999995  0.24999947  0.50007466  1
  N  N5  1  0.50147342  0.49853591  0.24999987  1
  N  N6  1  0.50147495  0.00146548  0.25000069  1
  N  N7  1  0.75000063  0.75000008  -0.00007109  1
  N  N8  1  0.75000008  0.24999998  0.00425635  1
  N  N9  1  0.99852505  0.49853452  0.24999931  1
  N  N10  1  0.99852658  0.00146409  0.25000013  1
  N  N11  1  0.24999984  0.74999915  0.01390333  1
  N  N12  1  0.25000005  0.25000053  -0.00007466  1
  N  N13  1  0.51136672  0.48869844  0.74999990  1
  N  N14  1  0.51135589  0.01129084  0.75000187  1
  N  N15  1  0.98864411  0.48870916  0.74999813  1
  N  N16  1  0.98863328  0.01130156  0.75000010  1
  Al  Al17  1  0.75000000  0.25000000  0.75000000  1
  Al  Al18  1  0.75000000  0.75000000  0.75000000  1
  Al  Al19  1  0.25000000  0.25000000  0.75000000  1
  Al  Al20  1  0.50213468  0.00218494  0.49657926  1
  Al  Al21  1  0.50213451  0.49781323  0.49658514  1
  Al  Al22  1  0.75000000  0.25000000  0.25000000  1
  Al  Al23  1  0.75000000  0.75000000  0.25000000  1
  Al  Al24  1  0.99786357  0.00218494  0.49658495  1
  Al  Al25  1  0.99786627  0.49781566  0.49658064  1
  Al  Al26  1  0.25000000  0.25000000  0.25000000  1
  Al  Al27  1  0.25000000  0.75000000  0.25000000  1
  Al  Al28  1  0.50213373  0.00218434  0.00341936  1
  Al  Al29  1  0.50213643  0.49781506  0.00341505  1
  Al  Al30  1  0.99786549  0.00218677  0.00341486  1
  Al  Al31  1  0.99786532  0.49781506  0.00342074  1
