# generated using pymatgen
data_Ti11CoN12
_symmetry_space_group_name_H-M   'P 1'
_cell_length_a   5.19895141
_cell_length_b   5.99878162
_cell_length_c   7.35036042
_cell_angle_alpha   90.00000000
_cell_angle_beta   90.09488539
_cell_angle_gamma   90.00000000
_symmetry_Int_Tables_number   1
_chemical_formula_structural   Ti11CoN12
_chemical_formula_sum   'Ti11 Co1 N12'
_cell_volume   229.23812627
_cell_formula_units_Z   1
loop_
 _symmetry_equiv_pos_site_id
 _symmetry_equiv_pos_as_xyz
  1  'x, y, z'
loop_
 _atom_site_type_symbol
 _atom_site_label
 _atom_site_symmetry_multiplicity
 _atom_site_fract_x
 _atom_site_fract_y
 _atom_site_fract_z
 _atom_site_occupancy
  Ti  Ti0  1  0.50139431  0.25032587  0.00487256  1
  Ti  Ti1  1  0.32246149  -0.00002215  0.67173644  1
  Ti  Ti2  1  0.16665056  0.74662333  0.33331481  1
  Ti  Ti3  1  0.50147542  0.74965307  0.00483071  1
  Ti  Ti4  1  0.34424957  0.49999656  0.67064799  1
  Ti  Ti5  1  0.01087182  0.00002215  0.99493025  1
  Ti  Ti6  1  0.83193900  0.74967406  0.66179413  1
  Ti  Ti7  1  0.98908374  0.50000338  0.99601864  1
  Ti  Ti8  1  0.16668276  0.25337660  0.33335181  1
  Ti  Ti9  1  0.83185789  0.25034692  0.66183598  1
  Ti  Ti10  1  0.66666663  0.00000000  0.33333331  1
  Co  Co11  1  0.66666663  0.49999997  0.33333331  1
  N  N12  1  0.16669131  0.25266136  0.83331966  1
  N  N13  1  0.49581289  0.24506540  0.50245758  1
  N  N14  1  0.33332101  -0.00001933  0.16853633  1
  N  N15  1  0.16664199  0.74733863  0.83334696  1
  N  N16  1  0.49581682  0.75495266  0.50248279  1
  N  N17  1  0.32633736  0.49998901  0.16377842  1
  N  N18  1  0.83751646  0.24504727  0.16418384  1
  N  N19  1  0.66666669  0.00000000  0.83333331  1
  N  N20  1  0.00001230  0.00001933  0.49813033  1
  N  N21  1  0.83752039  0.75493453  0.16420905  1
  N  N22  1  0.66666669  0.49999997  0.83333331  1
  N  N23  1  0.00699595  0.50001093  0.50288824  1
