# generated using pymatgen
data_Al15ReN16
_symmetry_space_group_name_H-M   'P 1'
_cell_length_a   6.30691866
_cell_length_b   6.30691866
_cell_length_c   10.00767207
_cell_angle_alpha   90.00000000
_cell_angle_beta   90.00000000
_cell_angle_gamma   120.00000000
_symmetry_Int_Tables_number   1
_chemical_formula_structural   Al15ReN16
_chemical_formula_sum   'Al15 Re1 N16'
_cell_volume   344.74514414
_cell_formula_units_Z   1
loop_
 _symmetry_equiv_pos_site_id
 _symmetry_equiv_pos_as_xyz
  1  'x, y, z'
loop_
 _atom_site_type_symbol
 _atom_site_label
 _atom_site_symmetry_multiplicity
 _atom_site_fract_x
 _atom_site_fract_y
 _atom_site_fract_z
 _atom_site_occupancy
  Re  Re0  1  0.16666667  0.33333333  0.21063305  1
  Al  Al1  1  0.33734971  0.16265029  0.99847022  1
  Al  Al2  1  0.16666667  0.33333333  0.75361695  1
  Al  Al3  1  0.33082736  0.16917264  0.49986883  1
  Al  Al4  1  0.16527708  0.83263854  0.25787753  1
  Al  Al5  1  0.33734971  0.67469943  0.99847022  1
  Al  Al6  1  0.16570879  0.83285439  0.74892875  1
  Al  Al7  1  0.33082736  0.66165472  0.49986883  1
  Al  Al8  1  0.66736146  0.33472292  0.25787753  1
  Al  Al9  1  0.82530057  0.16265029  0.99847022  1
  Al  Al10  1  0.66714561  0.33429121  0.74892875  1
  Al  Al11  1  0.83834528  0.16917264  0.49986883  1
  Al  Al12  1  0.66736146  0.83263854  0.25787753  1
  Al  Al13  1  0.83333333  0.66666667  0.00052983  1
  Al  Al14  1  0.66714561  0.83285439  0.74892875  1
  Al  Al15  1  0.83333333  0.66666667  0.50333411  1
  N  N16  1  0.16666667  0.33333333  0.43601969  1
  N  N17  1  0.34817568  0.15182432  0.18817382  1
  N  N18  1  0.16666667  0.33333333  0.95017426  1
  N  N19  1  0.33207809  0.16792191  0.69288767  1
  N  N20  1  0.16616535  0.83308267  0.44620430  1
  N  N21  1  0.34817568  0.69635137  0.18817382  1
  N  N22  1  0.16439753  0.83219876  0.93926615  1
  N  N23  1  0.33207809  0.66415620  0.69288767  1
  N  N24  1  0.66691733  0.33383465  0.44620430  1
  N  N25  1  0.80364863  0.15182432  0.18817382  1
  N  N26  1  0.66780124  0.33560247  0.93926615  1
  N  N27  1  0.83584380  0.16792191  0.69288767  1
  N  N28  1  0.66691733  0.83308267  0.44620430  1
  N  N29  1  0.83333333  0.66666667  0.19430193  1
  N  N30  1  0.66780124  0.83219876  0.93926615  1
  N  N31  1  0.83333333  0.66666667  0.69235842  1
