# generated using pymatgen
data_NbAl15N16
_symmetry_space_group_name_H-M   'P 1'
_cell_length_a   5.81072702
_cell_length_b   5.81072702
_cell_length_c   8.22401264
_cell_angle_alpha   90.00000000
_cell_angle_beta   90.00000000
_cell_angle_gamma   90.00000000
_symmetry_Int_Tables_number   1
_chemical_formula_structural   NbAl15N16
_chemical_formula_sum   'Nb1 Al15 N16'
_cell_volume   277.68007366
_cell_formula_units_Z   1
loop_
 _symmetry_equiv_pos_site_id
 _symmetry_equiv_pos_as_xyz
  1  'x, y, z'
loop_
 _atom_site_type_symbol
 _atom_site_label
 _atom_site_symmetry_multiplicity
 _atom_site_fract_x
 _atom_site_fract_y
 _atom_site_fract_z
 _atom_site_occupancy
  Nb  Nb0  1  0.25000000  0.75000000  0.75000000  1
  N  N1  1  0.74999941  0.74999991  0.50007105  1
  N  N2  1  0.74999991  0.25000002  0.49574366  1
  N  N3  1  0.25000012  0.75000088  0.48609669  1
  N  N4  1  0.24999996  0.24999944  0.50007469  1
  N  N5  1  0.50147345  0.49853583  0.24999988  1
  N  N6  1  0.50147483  0.00146541  0.25000069  1
  N  N7  1  0.75000059  0.75000009  -0.00007105  1
  N  N8  1  0.75000009  0.24999998  0.00425634  1
  N  N9  1  0.99852517  0.49853459  0.24999931  1
  N  N10  1  0.99852655  0.00146417  0.25000012  1
  N  N11  1  0.24999988  0.74999912  0.01390331  1
  N  N12  1  0.25000004  0.25000056  -0.00007469  1
  N  N13  1  0.51136683  0.48869785  0.74999991  1
  N  N14  1  0.51135532  0.01129071  0.75000188  1
  N  N15  1  0.98864468  0.48870929  0.74999812  1
  N  N16  1  0.98863317  0.01130215  0.75000009  1
  Al  Al17  1  0.75000000  0.25000000  0.75000000  1
  Al  Al18  1  0.75000000  0.75000000  0.75000000  1
  Al  Al19  1  0.25000000  0.25000000  0.75000000  1
  Al  Al20  1  0.50213483  0.00218487  0.49657913  1
  Al  Al21  1  0.50213458  0.49781341  0.49658529  1
  Al  Al22  1  0.75000000  0.25000000  0.25000000  1
  Al  Al23  1  0.75000000  0.75000000  0.25000000  1
  Al  Al24  1  0.99786352  0.00218474  0.49658512  1
  Al  Al25  1  0.99786610  0.49781576  0.49658051  1
  Al  Al26  1  0.25000000  0.25000000  0.25000000  1
  Al  Al27  1  0.25000000  0.75000000  0.25000000  1
  Al  Al28  1  0.50213390  0.00218424  0.00341949  1
  Al  Al29  1  0.50213648  0.49781526  0.00341488  1
  Al  Al30  1  0.99786542  0.00218659  0.00341471  1
  Al  Al31  1  0.99786517  0.49781513  0.00342087  1
