# generated using pymatgen
data_HfTiC2
_symmetry_space_group_name_H-M   'P 1'
_cell_length_a   11.01278406
_cell_length_b   11.01079646
_cell_length_c   5.50429448
_cell_angle_alpha   99.60291199
_cell_angle_beta   99.61111714
_cell_angle_gamma   33.62832154
_symmetry_Int_Tables_number   1
_chemical_formula_structural   HfTiC2
_chemical_formula_sum   'Hf8 Ti8 C16'
_cell_volume   363.97393383
_cell_formula_units_Z   8
loop_
 _symmetry_equiv_pos_site_id
 _symmetry_equiv_pos_as_xyz
  1  'x, y, z'
loop_
 _atom_site_type_symbol
 _atom_site_label
 _atom_site_symmetry_multiplicity
 _atom_site_fract_x
 _atom_site_fract_y
 _atom_site_fract_z
 _atom_site_occupancy
  C  C0  1  0.18335138  0.19405923  0.12207147  1
  C  C1  1  0.68777499  0.18745078  0.12493901  1
  C  C2  1  0.30417004  0.31346464  0.86871205  1
  C  C3  1  0.42821041  0.44654013  0.62509957  1
  C  C4  1  0.81724989  0.31758070  0.87894344  1
  C  C5  1  0.18738922  0.68757790  0.12412294  1
  C  C6  1  0.56479401  0.56532366  0.38281401  1
  C  C7  1  0.94215643  0.43074969  0.62791024  1
  C  C8  1  0.69257811  0.68213301  0.11535382  1
  C  C9  1  0.06470794  0.55500880  0.37759585  1
  C  C10  1  0.31523482  0.81472473  0.86448185  1
  C  C11  1  0.43231900  0.94261817  0.63452356  1
  C  C12  1  0.81477342  0.80535100  0.87564408  1
  C  C13  1  0.55431647  0.06305323  0.36980986  1
  C  C14  1  0.94654796  0.92849459  0.62569616  1
  C  C15  1  0.06484904  0.06552345  0.38272872  1
  Hf  Hf16  1  0.75073611  0.74549898  0.50058132  1
  Hf  Hf17  1  0.87644343  0.87040975  0.24918387  1
  Hf  Hf18  1  0.00354089  0.00001785  0.00041639  1
  Hf  Hf19  1  0.37524628  0.87807905  0.25065191  1
  Hf  Hf20  1  0.75178246  0.25203888  0.50336944  1
  Hf  Hf21  1  0.62215181  0.12424372  0.74832762  1
  Hf  Hf22  1  0.37056866  0.37570698  0.24792678  1
  Hf  Hf23  1  0.49980355  0.50355070  0.00056323  1
  Ti  Ti24  1  0.25122397  0.75114003  0.50241642  1
  Ti  Ti25  1  0.12587749  0.12800465  0.75067497  1
  Ti  Ti26  1  0.49553959  0.00099088  0.99717643  1
  Ti  Ti27  1  0.24615655  0.25115347  0.50108520  1
  Ti  Ti28  1  0.87837660  0.37537848  0.25019485  1
  Ti  Ti29  1  0.00031396  0.49606766  0.99666522  1
  Ti  Ti30  1  0.12444509  0.62296212  0.74923837  1
  Ti  Ti31  1  0.62737039  0.62510311  0.75108132  1
