# generated using pymatgen
data_Al16V32C15
_symmetry_space_group_name_H-M   'P 1'
_cell_length_a   5.78878615
_cell_length_b   5.78878616
_cell_length_c   26.33834582
_cell_angle_alpha   90.00000000
_cell_angle_beta   90.00000000
_cell_angle_gamma   120.00000001
_symmetry_Int_Tables_number   1
_chemical_formula_structural   Al16V32C15
_chemical_formula_sum   'Al16 V32 C15'
_cell_volume   764.35329156
_cell_formula_units_Z   1
loop_
 _symmetry_equiv_pos_site_id
 _symmetry_equiv_pos_as_xyz
  1  'x, y, z'
loop_
 _atom_site_type_symbol
 _atom_site_label
 _atom_site_symmetry_multiplicity
 _atom_site_fract_x
 _atom_site_fract_y
 _atom_site_fract_z
 _atom_site_occupancy
  Al  Al0  1  0.33332655  0.16665456  0.12488334  1
  Al  Al1  1  0.16683288  0.33341759  0.37481142  1
  Al  Al2  1  0.33341759  0.16683288  0.62518858  1
  Al  Al3  1  0.16665456  0.33332655  0.87511666  1
  Al  Al4  1  0.33332754  0.66667247  0.12488301  1
  Al  Al5  1  0.16666743  0.83333258  0.37538096  1
  Al  Al6  1  0.33341608  0.66658393  0.62518815  1
  Al  Al7  1  0.16666618  0.83333383  0.87510674  1
  Al  Al8  1  0.83333383  0.16666618  0.12489326  1
  Al  Al9  1  0.66658393  0.33341608  0.37481185  1
  Al  Al10  1  0.83333258  0.16666743  0.62461904  1
  Al  Al11  1  0.66667247  0.33332754  0.87511699  1
  Al  Al12  1  0.83334545  0.66667346  0.12488334  1
  Al  Al13  1  0.66658242  0.83316713  0.37481142  1
  Al  Al14  1  0.83316713  0.66658242  0.62518858  1
  Al  Al15  1  0.66667346  0.83334545  0.87511666  1
  V  V16  1  0.33385200  0.16770533  0.45697228  1
  V  V17  1  0.16669324  0.33334715  0.04301758  1
  V  V18  1  0.16682064  0.33340989  0.20686379  1
  V  V19  1  0.33317057  0.16634341  0.29289451  1
  V  V20  1  0.33334715  0.16669324  0.95698242  1
  V  V21  1  0.16770533  0.33385200  0.54302772  1
  V  V22  1  0.16634341  0.33317057  0.70710549  1
  V  V23  1  0.33340989  0.16682064  0.79313621  1
  V  V24  1  0.33385291  0.66614710  0.45697221  1
  V  V25  1  0.16666701  0.83333300  0.04303644  1
  V  V26  1  0.16666632  0.83333369  0.20689307  1
  V  V27  1  0.33317216  0.66682785  0.29289492  1
  V  V28  1  0.33334647  0.66665354  0.95698278  1
  V  V29  1  0.16666616  0.83333385  0.54203743  1
  V  V30  1  0.16666593  0.83333408  0.70733625  1
  V  V31  1  0.33341055  0.66658946  0.79313678  1
  V  V32  1  0.83333385  0.16666616  0.45796257  1
  V  V33  1  0.66665354  0.33334647  0.04301722  1
  V  V34  1  0.66658946  0.33341055  0.20686322  1
  V  V35  1  0.83333408  0.16666593  0.29266375  1
  V  V36  1  0.83333300  0.16666701  0.95696356  1
  V  V37  1  0.66614710  0.33385291  0.54302779  1
  V  V38  1  0.66682785  0.33317216  0.70710508  1
  V  V39  1  0.83333369  0.16666632  0.79310693  1
  V  V40  1  0.83229468  0.66614801  0.45697228  1
  V  V41  1  0.66665286  0.83330677  0.04301758  1
  V  V42  1  0.66659012  0.83317937  0.20686379  1
  V  V43  1  0.83365660  0.66682944  0.29289451  1
  V  V44  1  0.83330677  0.66665286  0.95698242  1
  V  V45  1  0.66614801  0.83229468  0.54302772  1
  V  V46  1  0.66682944  0.83365660  0.70710549  1
  V  V47  1  0.83317937  0.66659012  0.79313621  1
  C  C48  1  0.00000000  0.00000000  -0.00000000  1
  C  C49  1  0.99998454  0.00001546  0.24982930  1
  C  C50  1  0.00000000  0.00000000  0.50000000  1
  C  C51  1  0.00001546  0.99998454  0.75017070  1
  C  C52  1  0.00000000  0.50000000  -0.00000000  1
  C  C53  1  0.99998657  0.49997008  0.24982962  1
  C  C54  1  0.00000000  0.50000000  0.50000000  1
  C  C55  1  0.00001343  0.50002992  0.75017038  1
  C  C56  1  0.50000000  0.00000000  -0.00000000  1
  C  C57  1  0.50002992  0.00001343  0.24982962  1
  C  C58  1  0.50000000  0.00000000  0.50000000  1
  C  C59  1  0.49997008  0.99998657  0.75017038  1
  C  C60  1  0.50000000  0.50000000  -0.00000000  1
  C  C61  1  0.49999900  0.50000100  0.24993685  1
  C  C62  1  0.50000100  0.49999900  0.75006315  1
