# generated using pymatgen
data_Ti3NiC4
_symmetry_space_group_name_H-M   'P 1'
_cell_length_a   6.79840804
_cell_length_b   6.78157481
_cell_length_c   7.93728955
_cell_angle_alpha   75.76674468
_cell_angle_beta   64.88425485
_cell_angle_gamma   72.31114272
_symmetry_Int_Tables_number   1
_chemical_formula_structural   Ti3NiC4
_chemical_formula_sum   'Ti12 Ni4 C16'
_cell_volume   312.76357073
_cell_formula_units_Z   4
loop_
 _symmetry_equiv_pos_site_id
 _symmetry_equiv_pos_as_xyz
  1  'x, y, z'
loop_
 _atom_site_type_symbol
 _atom_site_label
 _atom_site_symmetry_multiplicity
 _atom_site_fract_x
 _atom_site_fract_y
 _atom_site_fract_z
 _atom_site_occupancy
  C  C0  1  0.85079869  0.40364588  0.45578640  1
  C  C1  1  0.15679258  0.59129947  0.52936058  1
  C  C2  1  0.27441551  0.45811081  0.15134646  1
  C  C3  1  0.47155565  0.78199230  0.58946663  1
  C  C4  1  0.77954878  0.96784228  0.65882319  1
  C  C5  1  0.09264386  0.15876014  0.72239519  1
  C  C6  1  0.59927840  0.64884837  0.21391596  1
  C  C7  1  0.90440219  0.84912742  0.28442128  1
  C  C8  1  0.21410835  0.03129390  0.33595868  1
  C  C9  1  0.40627317  0.34446728  0.78316772  1
  C  C10  1  0.71844466  0.53071843  0.84730209  1
  C  C11  1  0.02939831  0.72084040  0.90911376  1
  C  C12  1  0.33932435  0.90651527  0.97083640  1
  C  C13  1  0.54104169  0.21784431  0.39530081  1
  C  C14  1  0.65591224  0.10099512  0.03331266  1
  C  C15  1  0.96000978  0.29213365  0.12516920  1
  Ni  Ni16  1  0.31975141  0.18046732  0.06216695  1
  Ni  Ni17  1  0.62664489  0.37462886  0.12194199  1
  Ni  Ni18  1  0.93379942  0.56919534  0.18299022  1
  Ni  Ni19  1  0.87257804  0.12726594  0.38297510  1
  Ti  Ti20  1  0.05976059  0.43807610  0.82353308  1
  Ti  Ti21  1  0.37400197  0.62207754  0.87701680  1
  Ti  Ti22  1  0.50939476  0.49398179  0.48906465  1
  Ti  Ti23  1  0.68677517  0.81753495  0.93714291  1
  Ti  Ti24  1  0.99726839  0.01015914  0.01175394  1
  Ti  Ti25  1  0.81292112  0.68626208  0.56088865  1
  Ti  Ti26  1  0.12429486  0.87481016  0.62414437  1
  Ti  Ti27  1  0.43847921  0.06488806  0.68568335  1
  Ti  Ti28  1  0.24835646  0.74020701  0.24826292  1
  Ti  Ti29  1  0.56463522  0.93574749  0.30905017  1
  Ti  Ti30  1  0.74969748  0.25096001  0.75236055  1
  Ti  Ti31  1  0.18769277  0.30930317  0.42534731  1
