# generated using pymatgen
data_Al15ReN16
_symmetry_space_group_name_H-M   'P 1'
_cell_length_a   6.30691866
_cell_length_b   6.30691866
_cell_length_c   10.00767207
_cell_angle_alpha   90.00000000
_cell_angle_beta   90.00000000
_cell_angle_gamma   120.00000000
_symmetry_Int_Tables_number   1
_chemical_formula_structural   Al15ReN16
_chemical_formula_sum   'Al15 Re1 N16'
_cell_volume   344.74514414
_cell_formula_units_Z   1
loop_
 _symmetry_equiv_pos_site_id
 _symmetry_equiv_pos_as_xyz
  1  'x, y, z'
loop_
 _atom_site_type_symbol
 _atom_site_label
 _atom_site_symmetry_multiplicity
 _atom_site_fract_x
 _atom_site_fract_y
 _atom_site_fract_z
 _atom_site_occupancy
  Re  Re0  1  0.16666667  0.33333333  0.21063446  1
  Al  Al1  1  0.33734962  0.16265038  0.99847003  1
  Al  Al2  1  0.16666667  0.33333333  0.75361708  1
  Al  Al3  1  0.33082738  0.16917262  0.49986882  1
  Al  Al4  1  0.16527663  0.83263831  0.25787750  1
  Al  Al5  1  0.33734962  0.67469924  0.99847003  1
  Al  Al6  1  0.16570865  0.83285432  0.74892877  1
  Al  Al7  1  0.33082738  0.66165476  0.49986882  1
  Al  Al8  1  0.66736169  0.33472337  0.25787750  1
  Al  Al9  1  0.82530076  0.16265038  0.99847003  1
  Al  Al10  1  0.66714568  0.33429135  0.74892877  1
  Al  Al11  1  0.83834524  0.16917262  0.49986882  1
  Al  Al12  1  0.66736169  0.83263831  0.25787750  1
  Al  Al13  1  0.83333333  0.66666667  0.00052972  1
  Al  Al14  1  0.66714568  0.83285432  0.74892877  1
  Al  Al15  1  0.83333333  0.66666667  0.50333413  1
  N  N16  1  0.16666667  0.33333333  0.43601778  1
  N  N17  1  0.34817400  0.15182600  0.18817450  1
  N  N18  1  0.16666667  0.33333333  0.95017374  1
  N  N19  1  0.33207790  0.16792210  0.69288795  1
  N  N20  1  0.16616434  0.83308216  0.44620481  1
  N  N21  1  0.34817400  0.69634801  0.18817450  1
  N  N22  1  0.16439569  0.83219784  0.93926509  1
  N  N23  1  0.33207790  0.66415582  0.69288795  1
  N  N24  1  0.66691784  0.33383566  0.44620481  1
  N  N25  1  0.80365199  0.15182600  0.18817450  1
  N  N26  1  0.66780216  0.33560431  0.93926509  1
  N  N27  1  0.83584418  0.16792210  0.69288795  1
  N  N28  1  0.66691784  0.83308216  0.44620481  1
  N  N29  1  0.83333333  0.66666667  0.19430207  1
  N  N30  1  0.66780216  0.83219784  0.93926509  1
  N  N31  1  0.83333333  0.66666667  0.69235869  1
