# generated using pymatgen
data_HfTaTiNbVC5
_symmetry_space_group_name_H-M   'P 1'
_cell_length_a   7.01543200
_cell_length_b   4.44946700
_cell_length_c   7.01666900
_cell_angle_alpha   90.00000000
_cell_angle_beta   90.00000000
_cell_angle_gamma   90.00000000
_symmetry_Int_Tables_number   1
_chemical_formula_structural   HfTaTiNbVC5
_chemical_formula_sum   'Hf2 Ta2 Ti2 Nb2 V2 C10'
_cell_volume   219.02485394
_cell_formula_units_Z   2
loop_
 _symmetry_equiv_pos_site_id
 _symmetry_equiv_pos_as_xyz
  1  'x, y, z'
loop_
 _atom_site_type_symbol
 _atom_site_label
 _atom_site_symmetry_multiplicity
 _atom_site_fract_x
 _atom_site_fract_y
 _atom_site_fract_z
 _atom_site_occupancy
  C  C0  1  0.69726741  0.00000000  0.90160450  1
  C  C1  1  0.49134399  0.00000000  0.50680806  1
  C  C2  1  0.60258119  0.50000000  0.19703834  1
  C  C3  1  0.90604811  0.00000000  0.29581172  1
  C  C4  1  0.99840861  0.50000000  0.99763932  1
  C  C5  1  0.29751876  0.00000000  0.09647573  1
  C  C6  1  0.39389191  0.50000000  0.80354470  1
  C  C7  1  0.80825385  0.50000000  0.60043880  1
  C  C8  1  0.11310823  0.00000000  0.70042031  1
  C  C9  1  0.19240302  0.50000000  0.40475142  1
  Hf  Hf10  1  0.49769085  0.50000000  0.50214711  1
  Hf  Hf11  1  0.80871678  0.00000000  0.60094313  1
  V  V12  1  0.39247616  0.00000000  0.78923369  1
  V  V13  1  0.10875409  0.50000000  0.69686175  1
  Nb  Nb14  1  0.29510359  0.50000000  0.10212577  1
  Nb  Nb15  1  0.59367340  0.00000000  0.19868001  1
  Ta  Ta16  1  0.69852474  0.50000000  0.90020766  1
  Ta  Ta17  1  0.00706195  0.00000000  0.00002369  1
  Ti  Ti18  1  0.19666985  0.00000000  0.40391435  1
  Ti  Ti19  1  0.90050350  0.50000000  0.30132995  1
