# generated using pymatgen
data_HfTaTiNbVC5
_symmetry_space_group_name_H-M   'P 1'
_cell_length_a   7.02807800
_cell_length_b   4.46211300
_cell_length_c   7.02931500
_cell_angle_alpha   90.00000000
_cell_angle_beta   90.00000000
_cell_angle_gamma   90.00000000
_symmetry_Int_Tables_number   1
_chemical_formula_structural   HfTaTiNbVC5
_chemical_formula_sum   'Hf2 Ta2 Ti2 Nb2 V2 C10'
_cell_volume   220.43986815
_cell_formula_units_Z   2
loop_
 _symmetry_equiv_pos_site_id
 _symmetry_equiv_pos_as_xyz
  1  'x, y, z'
loop_
 _atom_site_type_symbol
 _atom_site_label
 _atom_site_symmetry_multiplicity
 _atom_site_fract_x
 _atom_site_fract_y
 _atom_site_fract_z
 _atom_site_occupancy
  C  C0  1  0.69740943  0.00000000  0.90167825  1
  C  C1  1  0.49131700  0.00000000  0.50677782  1
  C  C2  1  0.60248477  0.50000000  0.19689840  1
  C  C3  1  0.90603131  0.00000000  0.29582775  1
  C  C4  1  0.99841020  0.50000000  0.99774959  1
  C  C5  1  0.29747444  0.00000000  0.09645150  1
  C  C6  1  0.39400446  0.50000000  0.80351388  1
  C  C7  1  0.80811986  0.50000000  0.60053104  1
  C  C8  1  0.11308428  0.00000000  0.70051557  1
  C  C9  1  0.19246118  0.50000000  0.40471538  1
  Hf  Hf10  1  0.49768212  0.50000000  0.50209105  1
  Hf  Hf11  1  0.80872364  0.00000000  0.60103644  1
  V  V12  1  0.39226446  0.00000000  0.78890802  1
  V  V13  1  0.10886690  0.50000000  0.69676291  1
  Nb  Nb14  1  0.29503260  0.50000000  0.10203925  1
  Nb  Nb15  1  0.59355999  0.00000000  0.19850610  1
  Ta  Ta16  1  0.69867605  0.50000000  0.90027686  1
  Ta  Ta17  1  0.00720284  0.00000000  0.00025997  1
  Ti  Ti18  1  0.19665608  0.00000000  0.40399250  1
  Ti  Ti19  1  0.90053842  0.50000000  0.30146773  1
