# generated using pymatgen
data_HfTaTiNbVC5
_symmetry_space_group_name_H-M   'P 1'
_cell_length_a   7.02124800
_cell_length_b   4.45528300
_cell_length_c   7.02248500
_cell_angle_alpha   90.00000000
_cell_angle_beta   90.00000000
_cell_angle_gamma   90.00000000
_symmetry_Int_Tables_number   1
_chemical_formula_structural   HfTaTiNbVC5
_chemical_formula_sum   'Hf2 Ta2 Ti2 Nb2 V2 C10'
_cell_volume   219.67489580
_cell_formula_units_Z   2
loop_
 _symmetry_equiv_pos_site_id
 _symmetry_equiv_pos_as_xyz
  1  'x, y, z'
loop_
 _atom_site_type_symbol
 _atom_site_label
 _atom_site_symmetry_multiplicity
 _atom_site_fract_x
 _atom_site_fract_y
 _atom_site_fract_z
 _atom_site_occupancy
  C  C0  1  0.69739874  0.00000000  0.90164378  1
  C  C1  1  0.49120868  0.00000000  0.50681622  1
  C  C2  1  0.60254559  0.50000000  0.19694504  1
  C  C3  1  0.90596572  0.00000000  0.29581026  1
  C  C4  1  0.99840383  0.50000000  0.99773192  1
  C  C5  1  0.29755374  0.00000000  0.09647913  1
  C  C6  1  0.39389712  0.50000000  0.80355279  1
  C  C7  1  0.80819932  0.50000000  0.60051662  1
  C  C8  1  0.11300563  0.00000000  0.70046982  1
  C  C9  1  0.19244996  0.50000000  0.40470953  1
  Hf  Hf10  1  0.49771613  0.50000000  0.50200237  1
  Hf  Hf11  1  0.80878305  0.00000000  0.60090746  1
  V  V12  1  0.39229881  0.00000000  0.78877742  1
  V  V13  1  0.10884343  0.50000000  0.69669020  1
  Nb  Nb14  1  0.29502323  0.50000000  0.10221088  1
  Nb  Nb15  1  0.59366896  0.00000000  0.19867702  1
  Ta  Ta16  1  0.69864954  0.50000000  0.90032963  1
  Ta  Ta17  1  0.00716595  0.00000000  0.00029823  1
  Ti  Ti18  1  0.19666620  0.00000000  0.40402642  1
  Ti  Ti19  1  0.90055643  0.50000000  0.30140530  1
