# generated using pymatgen
data_HfTaTiNbVC5
_symmetry_space_group_name_H-M   'P 1'
_cell_length_a   7.04124300
_cell_length_b   4.47527800
_cell_length_c   7.04248000
_cell_angle_alpha   90.00000000
_cell_angle_beta   90.00000000
_cell_angle_gamma   90.00000000
_symmetry_Int_Tables_number   1
_chemical_formula_structural   HfTaTiNbVC5
_chemical_formula_sum   'Hf2 Ta2 Ti2 Nb2 V2 C10'
_cell_volume   221.91924860
_cell_formula_units_Z   2
loop_
 _symmetry_equiv_pos_site_id
 _symmetry_equiv_pos_as_xyz
  1  'x, y, z'
loop_
 _atom_site_type_symbol
 _atom_site_label
 _atom_site_symmetry_multiplicity
 _atom_site_fract_x
 _atom_site_fract_y
 _atom_site_fract_z
 _atom_site_occupancy
  C  C0  1  0.69765776  0.00000000  0.90180037  1
  C  C1  1  0.49117877  0.00000000  0.50674279  1
  C  C2  1  0.60242198  0.50000000  0.19677087  1
  C  C3  1  0.90596185  0.00000000  0.29585556  1
  C  C4  1  0.99840572  0.50000000  0.99791502  1
  C  C5  1  0.29748750  0.00000000  0.09643584  1
  C  C6  1  0.39404713  0.50000000  0.80347683  1
  C  C7  1  0.80802572  0.50000000  0.60065245  1
  C  C8  1  0.11293111  0.00000000  0.70061617  1
  C  C9  1  0.19254092  0.50000000  0.40465257  1
  Hf  Hf10  1  0.49772885  0.50000000  0.50190034  1
  Hf  Hf11  1  0.80877499  0.00000000  0.60107296  1
  V  V12  1  0.39195853  0.00000000  0.78824218  1
  V  V13  1  0.10901812  0.50000000  0.69650515  1
  Nb  Nb14  1  0.29493956  0.50000000  0.10202814  1
  Nb  Nb15  1  0.59348070  0.00000000  0.19837761  1
  Ta  Ta16  1  0.69888014  0.50000000  0.90046719  1
  Ta  Ta17  1  0.00736045  0.00000000  0.00067849  1
  Ti  Ti18  1  0.19663336  0.00000000  0.40414871  1
  Ti  Ti19  1  0.90056685  0.50000000  0.30166074  1
