# generated using pymatgen
data_HfTaTiNbVC5
_symmetry_space_group_name_H-M   'P 1'
_cell_length_a   7.04523900
_cell_length_b   4.47927400
_cell_length_c   7.04647600
_cell_angle_alpha   90.00000000
_cell_angle_beta   90.00000000
_cell_angle_gamma   90.00000000
_symmetry_Int_Tables_number   1
_chemical_formula_structural   HfTaTiNbVC5
_chemical_formula_sum   'Hf2 Ta2 Ti2 Nb2 V2 C10'
_cell_volume   222.36956010
_cell_formula_units_Z   2
loop_
 _symmetry_equiv_pos_site_id
 _symmetry_equiv_pos_as_xyz
  1  'x, y, z'
loop_
 _atom_site_type_symbol
 _atom_site_label
 _atom_site_symmetry_multiplicity
 _atom_site_fract_x
 _atom_site_fract_y
 _atom_site_fract_z
 _atom_site_occupancy
  C  C0  1  0.69771179  0.00000000  0.90183129  1
  C  C1  1  0.49117074  0.00000000  0.50672694  1
  C  C2  1  0.60240139  0.50000000  0.19673454  1
  C  C3  1  0.90596406  0.00000000  0.29586327  1
  C  C4  1  0.99840653  0.50000000  0.99795049  1
  C  C5  1  0.29747604  0.00000000  0.09643159  1
  C  C6  1  0.39407404  0.50000000  0.80346255  1
  C  C7  1  0.80798915  0.50000000  0.60067860  1
  C  C8  1  0.11291784  0.00000000  0.70064567  1
  C  C9  1  0.19255883  0.50000000  0.40464201  1
  Hf  Hf10  1  0.49772872  0.50000000  0.50187973  1
  Hf  Hf11  1  0.80877565  0.00000000  0.60110740  1
  V  V12  1  0.39188685  0.00000000  0.78812464  1
  V  V13  1  0.10905279  0.50000000  0.69646915  1
  Nb  Nb14  1  0.29492284  0.50000000  0.10199523  1
  Nb  Nb15  1  0.59344438  0.00000000  0.19831590  1
  Ta  Ta16  1  0.69892712  0.50000000  0.90049487  1
  Ta  Ta17  1  0.00740370  0.00000000  0.00076129  1
  Ti  Ti18  1  0.19662064  0.00000000  0.40417404  1
  Ti  Ti19  1  0.90056695  0.50000000  0.30171083  1
