# generated using pymatgen
data_HfTaTiNbVC5
_symmetry_space_group_name_H-M   'P 1'
_cell_length_a   7.03352300
_cell_length_b   4.46755800
_cell_length_c   7.03476000
_cell_angle_alpha   90.00000000
_cell_angle_beta   90.00000000
_cell_angle_gamma   90.00000000
_symmetry_Int_Tables_number   1
_chemical_formula_structural   HfTaTiNbVC5
_chemical_formula_sum   'Hf2 Ta2 Ti2 Nb2 V2 C10'
_cell_volume   221.05095570
_cell_formula_units_Z   2
loop_
 _symmetry_equiv_pos_site_id
 _symmetry_equiv_pos_as_xyz
  1  'x, y, z'
loop_
 _atom_site_type_symbol
 _atom_site_label
 _atom_site_symmetry_multiplicity
 _atom_site_fract_x
 _atom_site_fract_y
 _atom_site_fract_z
 _atom_site_occupancy
  C  C0  1  0.69747450  0.00000000  0.90172898  1
  C  C1  1  0.49130906  0.00000000  0.50673708  1
  C  C2  1  0.60245232  0.50000000  0.19684850  1
  C  C3  1  0.90602636  0.00000000  0.29585938  1
  C  C4  1  0.99839815  0.50000000  0.99780501  1
  C  C5  1  0.29747466  0.00000000  0.09643456  1
  C  C6  1  0.39404253  0.50000000  0.80349290  1
  C  C7  1  0.80807664  0.50000000  0.60056677  1
  C  C8  1  0.11305782  0.00000000  0.70057156  1
  C  C9  1  0.19249485  0.50000000  0.40470194  1
  Hf  Hf10  1  0.49770231  0.50000000  0.50203804  1
  Hf  Hf11  1  0.80872464  0.00000000  0.60108019  1
  V  V12  1  0.39216037  0.00000000  0.78875716  1
  V  V13  1  0.10891573  0.50000000  0.69670772  1
  Nb  Nb14  1  0.29501374  0.50000000  0.10197830  1
  Nb  Nb15  1  0.59351135  0.00000000  0.19842192  1
  Ta  Ta16  1  0.69874370  0.50000000  0.90031104  1
  Ta  Ta17  1  0.00722400  0.00000000  0.00036886  1
  Ti  Ti18  1  0.19666144  0.00000000  0.40402733  1
  Ti  Ti19  1  0.90053586  0.50000000  0.30156274  1
