# generated using pymatgen
data_HfTaTiNbVC5
_symmetry_space_group_name_H-M   'P 1'
_cell_length_a   7.04324100
_cell_length_b   4.47727600
_cell_length_c   7.04447800
_cell_angle_alpha   90.00000000
_cell_angle_beta   90.00000000
_cell_angle_gamma   90.00000000
_symmetry_Int_Tables_number   1
_chemical_formula_structural   HfTaTiNbVC5
_chemical_formula_sum   'Hf2 Ta2 Ti2 Nb2 V2 C10'
_cell_volume   222.14433024
_cell_formula_units_Z   2
loop_
 _symmetry_equiv_pos_site_id
 _symmetry_equiv_pos_as_xyz
  1  'x, y, z'
loop_
 _atom_site_type_symbol
 _atom_site_label
 _atom_site_symmetry_multiplicity
 _atom_site_fract_x
 _atom_site_fract_y
 _atom_site_fract_z
 _atom_site_occupancy
  C  C0  1  0.69768152  0.00000000  0.90181756  1
  C  C1  1  0.49117614  0.00000000  0.50673284  1
  C  C2  1  0.60241321  0.50000000  0.19675260  1
  C  C3  1  0.90596228  0.00000000  0.29586059  1
  C  C4  1  0.99840553  0.50000000  0.99793429  1
  C  C5  1  0.29748099  0.00000000  0.09643030  1
  C  C6  1  0.39406146  0.50000000  0.80346789  1
  C  C7  1  0.80800742  0.50000000  0.60066656  1
  C  C8  1  0.11292402  0.00000000  0.70063194  1
  C  C9  1  0.19255157  0.50000000  0.40464756  1
  Hf  Hf10  1  0.49773031  0.50000000  0.50189052  1
  Hf  Hf11  1  0.80877448  0.00000000  0.60109172  1
  V  V12  1  0.39191974  0.00000000  0.78818763  1
  V  V13  1  0.10903668  0.50000000  0.69648290  1
  Nb  Nb14  1  0.29493267  0.50000000  0.10200677  1
  Nb  Nb15  1  0.59346263  0.00000000  0.19834798  1
  Ta  Ta16  1  0.69890598  0.50000000  0.90048188  1
  Ta  Ta17  1  0.00738085  0.00000000  0.00072252  1
  Ti  Ti18  1  0.19662622  0.00000000  0.40415877  1
  Ti  Ti19  1  0.90056634  0.50000000  0.30168722  1
