# generated using pymatgen
data_HfTaTiNbVC5
_symmetry_space_group_name_H-M   'P 1'
_cell_length_a   7.04723400
_cell_length_b   4.48126900
_cell_length_c   7.04847100
_cell_angle_alpha   90.00000000
_cell_angle_beta   90.00000000
_cell_angle_gamma   90.00000000
_symmetry_Int_Tables_number   1
_chemical_formula_structural   HfTaTiNbVC5
_chemical_formula_sum   'Hf2 Ta2 Ti2 Nb2 V2 C10'
_cell_volume   222.59459972
_cell_formula_units_Z   2
loop_
 _symmetry_equiv_pos_site_id
 _symmetry_equiv_pos_as_xyz
  1  'x, y, z'
loop_
 _atom_site_type_symbol
 _atom_site_label
 _atom_site_symmetry_multiplicity
 _atom_site_fract_x
 _atom_site_fract_y
 _atom_site_fract_z
 _atom_site_occupancy
  C  C0  1  0.69773942  0.00000000  0.90184942  1
  C  C1  1  0.49116760  0.00000000  0.50671974  1
  C  C2  1  0.60239016  0.50000000  0.19671597  1
  C  C3  1  0.90596405  0.00000000  0.29586854  1
  C  C4  1  0.99840572  0.50000000  0.99797150  1
  C  C5  1  0.29746832  0.00000000  0.09642841  1
  C  C6  1  0.39409020  0.50000000  0.80345412  1
  C  C7  1  0.80797521  0.50000000  0.60069180  1
  C  C8  1  0.11291124  0.00000000  0.70066148  1
  C  C9  1  0.19256927  0.50000000  0.40463670  1
  Hf  Hf10  1  0.49773215  0.50000000  0.50187022  1
  Hf  Hf11  1  0.80877486  0.00000000  0.60112560  1
  V  V12  1  0.39184658  0.00000000  0.78807042  1
  V  V13  1  0.10906969  0.50000000  0.69644670  1
  Nb  Nb14  1  0.29491580  0.50000000  0.10197527  1
  Nb  Nb15  1  0.59342391  0.00000000  0.19828540  1
  Ta  Ta16  1  0.69895082  0.50000000  0.90050962  1
  Ta  Ta17  1  0.00742324  0.00000000  0.00080379  1
  Ti  Ti18  1  0.19661331  0.00000000  0.40418297  1
  Ti  Ti19  1  0.90056850  0.50000000  0.30173234  1
