# generated using pymatgen
data_HfTaTiNbVC5
_symmetry_space_group_name_H-M   'P 1'
_cell_length_a   7.06230300
_cell_length_b   4.49633800
_cell_length_c   7.06354000
_cell_angle_alpha   90.00000000
_cell_angle_beta   90.00000000
_cell_angle_gamma   90.00000000
_symmetry_Int_Tables_number   1
_chemical_formula_structural   HfTaTiNbVC5
_chemical_formula_sum   'Hf2 Ta2 Ti2 Nb2 V2 C10'
_cell_volume   224.29919044
_cell_formula_units_Z   2
loop_
 _symmetry_equiv_pos_site_id
 _symmetry_equiv_pos_as_xyz
  1  'x, y, z'
loop_
 _atom_site_type_symbol
 _atom_site_label
 _atom_site_symmetry_multiplicity
 _atom_site_fract_x
 _atom_site_fract_y
 _atom_site_fract_z
 _atom_site_occupancy
  C  C0  1  0.69797498  0.00000000  0.90196942  1
  C  C1  1  0.49112718  0.00000000  0.50665699  1
  C  C2  1  0.60230732  0.50000000  0.19657625  1
  C  C3  1  0.90596948  0.00000000  0.29589869  1
  C  C4  1  0.99840665  0.50000000  0.99812384  1
  C  C5  1  0.29741758  0.00000000  0.09641909  1
  C  C6  1  0.39419626  0.50000000  0.80339444  1
  C  C7  1  0.80785832  0.50000000  0.60078851  1
  C  C8  1  0.11284800  0.00000000  0.70076905  1
  C  C9  1  0.19263344  0.50000000  0.40460735  1
  Hf  Hf10  1  0.49773323  0.50000000  0.50180114  1
  Hf  Hf11  1  0.80877696  0.00000000  0.60125192  1
  V  V12  1  0.39155316  0.00000000  0.78760981  1
  V  V13  1  0.10919371  0.50000000  0.69628489  1
  Nb  Nb14  1  0.29484138  0.50000000  0.10186039  1
  Nb  Nb15  1  0.59328204  0.00000000  0.19803926  1
  Ta  Ta16  1  0.69914041  0.50000000  0.90063105  1
  Ta  Ta17  1  0.00759005  0.00000000  0.00111463  1
  Ti  Ti18  1  0.19657247  0.00000000  0.40428042  1
  Ti  Ti19  1  0.90057743  0.50000000  0.30192287  1
