# generated using pymatgen
data_HfTaTiNbVC5
_symmetry_space_group_name_H-M   'P 1'
_cell_length_a   7.06031600
_cell_length_b   4.49435100
_cell_length_c   7.06155300
_cell_angle_alpha   90.00000000
_cell_angle_beta   90.00000000
_cell_angle_gamma   90.00000000
_symmetry_Int_Tables_number   1
_chemical_formula_structural   HfTaTiNbVC5
_chemical_formula_sum   'Hf2 Ta2 Ti2 Nb2 V2 C10'
_cell_volume   224.07393930
_cell_formula_units_Z   2
loop_
 _symmetry_equiv_pos_site_id
 _symmetry_equiv_pos_as_xyz
  1  'x, y, z'
loop_
 _atom_site_type_symbol
 _atom_site_label
 _atom_site_symmetry_multiplicity
 _atom_site_fract_x
 _atom_site_fract_y
 _atom_site_fract_z
 _atom_site_occupancy
  C  C0  1  0.69794234  0.00000000  0.90195120  1
  C  C1  1  0.49113495  0.00000000  0.50666216  1
  C  C2  1  0.60231709  0.50000000  0.19659117  1
  C  C3  1  0.90596881  0.00000000  0.29589204  1
  C  C4  1  0.99840973  0.50000000  0.99809664  1
  C  C5  1  0.29742388  0.00000000  0.09641938  1
  C  C6  1  0.39418278  0.50000000  0.80340332  1
  C  C7  1  0.80786598  0.50000000  0.60078039  1
  C  C8  1  0.11287421  0.00000000  0.70075455  1
  C  C9  1  0.19262781  0.50000000  0.40461128  1
  Hf  Hf10  1  0.49772740  0.50000000  0.50182149  1
  Hf  Hf11  1  0.80876946  0.00000000  0.60123324  1
  V  V12  1  0.39159195  0.00000000  0.78767483  1
  V  V13  1  0.10918233  0.50000000  0.69631723  1
  Nb  Nb14  1  0.29485009  0.50000000  0.10187166  1
  Nb  Nb15  1  0.59329577  0.00000000  0.19807712  1
  Ta  Ta16  1  0.69911141  0.50000000  0.90061524  1
  Ta  Ta17  1  0.00757402  0.00000000  0.00107194  1
  Ti  Ti18  1  0.19657898  0.00000000  0.40426656  1
  Ti  Ti19  1  0.90057107  0.50000000  0.30188857  1
