# generated using pymatgen
data_HfTaTiNbVC5
_symmetry_space_group_name_H-M   'P 1'
_cell_length_a   7.06457100
_cell_length_b   4.49860600
_cell_length_c   7.06580800
_cell_angle_alpha   90.00000000
_cell_angle_beta   90.00000000
_cell_angle_gamma   90.00000000
_symmetry_Int_Tables_number   1
_chemical_formula_structural   HfTaTiNbVC5
_chemical_formula_sum   'Hf2 Ta2 Ti2 Nb2 V2 C10'
_cell_volume   224.55647614
_cell_formula_units_Z   2
loop_
 _symmetry_equiv_pos_site_id
 _symmetry_equiv_pos_as_xyz
  1  'x, y, z'
loop_
 _atom_site_type_symbol
 _atom_site_label
 _atom_site_symmetry_multiplicity
 _atom_site_fract_x
 _atom_site_fract_y
 _atom_site_fract_z
 _atom_site_occupancy
  C  C0  1  0.69800816  0.00000000  0.90198532  1
  C  C1  1  0.49111979  0.00000000  0.50665439  1
  C  C2  1  0.60229373  0.50000000  0.19655043  1
  C  C3  1  0.90597258  0.00000000  0.29590319  1
  C  C4  1  0.99840830  0.50000000  0.99814289  1
  C  C5  1  0.29740926  0.00000000  0.09641808  1
  C  C6  1  0.39420628  0.50000000  0.80338391  1
  C  C7  1  0.80783812  0.50000000  0.60080616  1
  C  C8  1  0.11285434  0.00000000  0.70078531  1
  C  C9  1  0.19264912  0.50000000  0.40460322  1
  Hf  Hf10  1  0.49773199  0.50000000  0.50179744  1
  Hf  Hf11  1  0.80877222  0.00000000  0.60127058  1
  V  V12  1  0.39150384  0.00000000  0.78752661  1
  V  V13  1  0.10921701  0.50000000  0.69626434  1
  Nb  Nb14  1  0.29482632  0.50000000  0.10184275  1
  Nb  Nb15  1  0.59325419  0.00000000  0.19800287  1
  Ta  Ta16  1  0.69916843  0.50000000  0.90065218  1
  Ta  Ta17  1  0.00762356  0.00000000  0.00116403  1
  Ti  Ti18  1  0.19656507  0.00000000  0.40430188  1
  Ti  Ti19  1  0.90057773  0.50000000  0.30194443  1
