# generated using pymatgen
data_HfTaTiNbVC5
_symmetry_space_group_name_H-M   'P 1'
_cell_length_a   7.03151300
_cell_length_b   4.46555800
_cell_length_c   7.03275800
_cell_angle_alpha   90.00000000
_cell_angle_beta   90.00000000
_cell_angle_gamma   90.00000000
_symmetry_Int_Tables_number   1
_chemical_formula_structural   HfTaTiNbVC5
_chemical_formula_sum   'Hf2 Ta2 Ti2 Nb2 V2 C10'
_cell_volume   220.82599296
_cell_formula_units_Z   2
loop_
 _symmetry_equiv_pos_site_id
 _symmetry_equiv_pos_as_xyz
  1  'x, y, z'
loop_
 _atom_site_type_symbol
 _atom_site_label
 _atom_site_symmetry_multiplicity
 _atom_site_fract_x
 _atom_site_fract_y
 _atom_site_fract_z
 _atom_site_occupancy
  C  C0  1  0.69744984  0.00000000  0.90170908  1
  C  C1  1  0.49131243  0.00000000  0.50674398  1
  C  C2  1  0.60246498  0.50000000  0.19686283  1
  C  C3  1  0.90602562  0.00000000  0.29585356  1
  C  C4  1  0.99839911  0.50000000  0.99778699  1
  C  C5  1  0.29748063  0.00000000  0.09643634  1
  C  C6  1  0.39402574  0.50000000  0.80349658  1
  C  C7  1  0.80809498  0.50000000  0.60055364  1
  C  C8  1  0.11306333  0.00000000  0.70055833  1
  C  C9  1  0.19248330  0.50000000  0.40470243  1
  Hf  Hf10  1  0.49769909  0.50000000  0.50205053  1
  Hf  Hf11  1  0.80871950  0.00000000  0.60106168  1
  V  V12  1  0.39220811  0.00000000  0.78882445  1
  V  V13  1  0.10889367  0.50000000  0.69673381  1
  Nb  Nb14  1  0.29502572  0.50000000  0.10199376  1
  Nb  Nb15  1  0.59353279  0.00000000  0.19845352  1
  Ta  Ta16  1  0.69872274  0.50000000  0.90029790  1
  Ta  Ta17  1  0.00720392  0.00000000  0.00032836  1
  Ti  Ti18  1  0.19666071  0.00000000  0.40401201  1
  Ti  Ti19  1  0.90053380  0.50000000  0.30154024  1
