# generated using pymatgen
data_HfTaTiNbVC5
_symmetry_space_group_name_H-M   'P 1'
_cell_length_a   7.02979900
_cell_length_b   4.46383400
_cell_length_c   7.03103600
_cell_angle_alpha   90.00000000
_cell_angle_beta   90.00000000
_cell_angle_gamma   90.00000000
_symmetry_Int_Tables_number   1
_chemical_formula_structural   HfTaTiNbVC5
_chemical_formula_sum   'Hf2 Ta2 Ti2 Nb2 V2 C10'
_cell_volume   220.63289573
_cell_formula_units_Z   2
loop_
 _symmetry_equiv_pos_site_id
 _symmetry_equiv_pos_as_xyz
  1  'x, y, z'
loop_
 _atom_site_type_symbol
 _atom_site_label
 _atom_site_symmetry_multiplicity
 _atom_site_fract_x
 _atom_site_fract_y
 _atom_site_fract_z
 _atom_site_occupancy
  C  C0  1  0.69742911  0.00000000  0.90169809  1
  C  C1  1  0.49131209  0.00000000  0.50674905  1
  C  C2  1  0.60247414  0.50000000  0.19688055  1
  C  C3  1  0.90602742  0.00000000  0.29585105  1
  C  C4  1  0.99840176  0.50000000  0.99777512  1
  C  C5  1  0.29748626  0.00000000  0.09643987  1
  C  C6  1  0.39401130  0.50000000  0.80350353  1
  C  C7  1  0.80811053  0.50000000  0.60054147  1
  C  C8  1  0.11306792  0.00000000  0.70054447  1
  C  C9  1  0.19247592  0.50000000  0.40470500  1
  Hf  Hf10  1  0.49769839  0.50000000  0.50205975  1
  Hf  Hf11  1  0.80872056  0.00000000  0.60104921  1
  V  V12  1  0.39223634  0.00000000  0.78886661  1
  V  V13  1  0.10888036  0.50000000  0.69674443  1
  Nb  Nb14  1  0.29503056  0.50000000  0.10200728  1
  Nb  Nb15  1  0.59354885  0.00000000  0.19847688  1
  Ta  Ta16  1  0.69870485  0.50000000  0.90028404  1
  Ta  Ta17  1  0.00718741  0.00000000  0.00029793  1
  Ti  Ti18  1  0.19666396  0.00000000  0.40400325  1
  Ti  Ti19  1  0.90053233  0.50000000  0.30152241  1
