# generated using pymatgen
data_HfTaTiNbVC5
_symmetry_space_group_name_H-M   'P 1'
_cell_length_a   7.01802300
_cell_length_b   4.45205800
_cell_length_c   7.01926000
_cell_angle_alpha   90.00000000
_cell_angle_beta   90.00000000
_cell_angle_gamma   90.00000000
_symmetry_Int_Tables_number   1
_chemical_formula_structural   HfTaTiNbVC5
_chemical_formula_sum   'Hf2 Ta2 Ti2 Nb2 V2 C10'
_cell_volume   219.31428996
_cell_formula_units_Z   2
loop_
 _symmetry_equiv_pos_site_id
 _symmetry_equiv_pos_as_xyz
  1  'x, y, z'
loop_
 _atom_site_type_symbol
 _atom_site_label
 _atom_site_symmetry_multiplicity
 _atom_site_fract_x
 _atom_site_fract_y
 _atom_site_fract_z
 _atom_site_occupancy
  C  C0  1  0.69730090  0.00000000  0.90161515  1
  C  C1  1  0.49134541  0.00000000  0.50679986  1
  C  C2  1  0.60256411  0.50000000  0.19701360  1
  C  C3  1  0.90605071  0.00000000  0.29581143  1
  C  C4  1  0.99840816  0.50000000  0.99765598  1
  C  C5  1  0.29750620  0.00000000  0.09647626  1
  C  C6  1  0.39390857  0.50000000  0.80354056  1
  C  C7  1  0.80823515  0.50000000  0.60045347  1
  C  C8  1  0.11309750  0.00000000  0.70044062  1
  C  C9  1  0.19242048  0.50000000  0.40474564  1
  Hf  Hf10  1  0.49769240  0.50000000  0.50213291  1
  Hf  Hf11  1  0.80871597  0.00000000  0.60096707  1
  V  V12  1  0.39243627  0.00000000  0.78917647  1
  V  V13  1  0.10876749  0.50000000  0.69685407  1
  Nb  Nb14  1  0.29509234  0.50000000  0.10210642  1
  Nb  Nb15  1  0.59364094  0.00000000  0.19863897  1
  Ta  Ta16  1  0.69855045  0.50000000  0.90021746  1
  Ta  Ta17  1  0.00709090  0.00000000  0.00006320  1
  Ti  Ti18  1  0.19666870  0.00000000  0.40393647  1
  Ti  Ti19  1  0.90050737  0.50000000  0.30135438  1
