# generated using pymatgen
data_HfTaTiNbVC5
_symmetry_space_group_name_H-M   'P 1'
_cell_length_a   7.01456800
_cell_length_b   4.44860300
_cell_length_c   7.01580500
_cell_angle_alpha   90.00000000
_cell_angle_beta   90.00000000
_cell_angle_gamma   90.00000000
_symmetry_Int_Tables_number   1
_chemical_formula_structural   HfTaTiNbVC5
_chemical_formula_sum   'Hf2 Ta2 Ti2 Nb2 V2 C10'
_cell_volume   218.92839321
_cell_formula_units_Z   2
loop_
 _symmetry_equiv_pos_site_id
 _symmetry_equiv_pos_as_xyz
  1  'x, y, z'
loop_
 _atom_site_type_symbol
 _atom_site_label
 _atom_site_symmetry_multiplicity
 _atom_site_fract_x
 _atom_site_fract_y
 _atom_site_fract_z
 _atom_site_occupancy
  C  C0  1  0.69730776  0.00000000  0.90159522  1
  C  C1  1  0.49121061  0.00000000  0.50684843  1
  C  C2  1  0.60258728  0.50000000  0.19700426  1
  C  C3  1  0.90597242  0.00000000  0.29579364  1
  C  C4  1  0.99840812  0.50000000  0.99768665  1
  C  C5  1  0.29758302  0.00000000  0.09649045  1
  C  C6  1  0.39385489  0.50000000  0.80357233  1
  C  C7  1  0.80824714  0.50000000  0.60047700  1
  C  C8  1  0.11302255  0.00000000  0.70041587  1
  C  C9  1  0.19241588  0.50000000  0.40472152  1
  Hf  Hf10  1  0.49772002  0.50000000  0.50203606  1
  Hf  Hf11  1  0.80877424  0.00000000  0.60085519  1
  V  V12  1  0.39240742  0.00000000  0.78895154  1
  V  V13  1  0.10877749  0.50000000  0.69674193  1
  Nb  Nb14  1  0.29506122  0.50000000  0.10226059  1
  Nb  Nb15  1  0.59373334  0.00000000  0.19877245  1
  Ta  Ta16  1  0.69858040  0.50000000  0.90028366  1
  Ta  Ta17  1  0.00709526  0.00000000  0.00017683  1
  Ti  Ti18  1  0.19668413  0.00000000  0.40398175  1
  Ti  Ti19  1  0.90055683  0.50000000  0.30133463  1
