# generated using pymatgen
data_HfTaTiNbVC5
_symmetry_space_group_name_H-M   'P 1'
_cell_length_a   7.02291100
_cell_length_b   4.45694600
_cell_length_c   7.02414800
_cell_angle_alpha   90.00000000
_cell_angle_beta   90.00000000
_cell_angle_gamma   90.00000000
_symmetry_Int_Tables_number   1
_chemical_formula_structural   HfTaTiNbVC5
_chemical_formula_sum   'Hf2 Ta2 Ti2 Nb2 V2 C10'
_cell_volume   219.86099578
_cell_formula_units_Z   2
loop_
 _symmetry_equiv_pos_site_id
 _symmetry_equiv_pos_as_xyz
  1  'x, y, z'
loop_
 _atom_site_type_symbol
 _atom_site_label
 _atom_site_symmetry_multiplicity
 _atom_site_fract_x
 _atom_site_fract_y
 _atom_site_fract_z
 _atom_site_occupancy
  C  C0  1  0.69741188  0.00000000  0.90165554  1
  C  C1  1  0.49120494  0.00000000  0.50680666  1
  C  C2  1  0.60253416  0.50000000  0.19693110  1
  C  C3  1  0.90596613  0.00000000  0.29580775  1
  C  C4  1  0.99840516  0.50000000  0.99774475  1
  C  C5  1  0.29755029  0.00000000  0.09646762  1
  C  C6  1  0.39391134  0.50000000  0.80354489  1
  C  C7  1  0.80817759  0.50000000  0.60053457  1
  C  C8  1  0.11299907  0.00000000  0.70048028  1
  C  C9  1  0.19245742  0.50000000  0.40469813  1
  Hf  Hf10  1  0.49771336  0.50000000  0.50199657  1
  Hf  Hf11  1  0.80878061  0.00000000  0.60091622  1
  V  V12  1  0.39227618  0.00000000  0.78875858  1
  V  V13  1  0.10885112  0.50000000  0.69668626  1
  Nb  Nb14  1  0.29502262  0.50000000  0.10218939  1
  Nb  Nb15  1  0.59365762  0.00000000  0.19865407  1
  Ta  Ta16  1  0.69867551  0.50000000  0.90034020  1
  Ta  Ta17  1  0.00717959  0.00000000  0.00032461  1
  Ti  Ti18  1  0.19666451  0.00000000  0.40403608  1
  Ti  Ti19  1  0.90056091  0.50000000  0.30142673  1
