# generated using pymatgen
data_HfTaTiNbVC5
_symmetry_space_group_name_H-M   'P 1'
_cell_length_a   7.01370300
_cell_length_b   4.44773800
_cell_length_c   7.01494000
_cell_angle_alpha   90.00000000
_cell_angle_beta   90.00000000
_cell_angle_gamma   90.00000000
_symmetry_Int_Tables_number   1
_chemical_formula_structural   HfTaTiNbVC5
_chemical_formula_sum   'Hf2 Ta2 Ti2 Nb2 V2 C10'
_cell_volume   218.83184847
_cell_formula_units_Z   2
loop_
 _symmetry_equiv_pos_site_id
 _symmetry_equiv_pos_as_xyz
  1  'x, y, z'
loop_
 _atom_site_type_symbol
 _atom_site_label
 _atom_site_symmetry_multiplicity
 _atom_site_fract_x
 _atom_site_fract_y
 _atom_site_fract_z
 _atom_site_occupancy
  C  C0  1  0.69724975  0.00000000  0.90159522  1
  C  C1  1  0.49134266  0.00000000  0.50682061  1
  C  C2  1  0.60258479  0.50000000  0.19706045  1
  C  C3  1  0.90604644  0.00000000  0.29580799  1
  C  C4  1  0.99841375  0.50000000  0.99762830  1
  C  C5  1  0.29753072  0.00000000  0.09648347  1
  C  C6  1  0.39388156  0.50000000  0.80356919  1
  C  C7  1  0.80825178  0.50000000  0.60044446  1
  C  C8  1  0.11311093  0.00000000  0.70040918  1
  C  C9  1  0.19238936  0.50000000  0.40474958  1
  Hf  Hf10  1  0.49770488  0.50000000  0.50214317  1
  Hf  Hf11  1  0.80871684  0.00000000  0.60091469  1
  V  V12  1  0.39249413  0.00000000  0.78928402  1
  V  V13  1  0.10873312  0.50000000  0.69687089  1
  Nb  Nb14  1  0.29511853  0.50000000  0.10213482  1
  Nb  Nb15  1  0.59369481  0.00000000  0.19869394  1
  Ta  Ta16  1  0.69851714  0.50000000  0.90019619  1
  Ta  Ta17  1  0.00705105  0.00000000  0.99998333  1
  Ti  Ti18  1  0.19665997  0.00000000  0.40390716  1
  Ti  Ti19  1  0.90050784  0.50000000  0.30130336  1
