# generated using pymatgen
data_HfTaTiNbVC5
_symmetry_space_group_name_H-M   'P 1'
_cell_length_a   7.01658300
_cell_length_b   4.45061800
_cell_length_c   7.01782000
_cell_angle_alpha   90.00000000
_cell_angle_beta   90.00000000
_cell_angle_gamma   90.00000000
_symmetry_Int_Tables_number   1
_chemical_formula_structural   HfTaTiNbVC5
_chemical_formula_sum   'Hf2 Ta2 Ti2 Nb2 V2 C10'
_cell_volume   219.15339948
_cell_formula_units_Z   2
loop_
 _symmetry_equiv_pos_site_id
 _symmetry_equiv_pos_as_xyz
  1  'x, y, z'
loop_
 _atom_site_type_symbol
 _atom_site_label
 _atom_site_symmetry_multiplicity
 _atom_site_fract_x
 _atom_site_fract_y
 _atom_site_fract_z
 _atom_site_occupancy
  C  C0  1  0.69728184  0.00000000  0.90161150  1
  C  C1  1  0.49134399  0.00000000  0.50680396  1
  C  C2  1  0.60257402  0.50000000  0.19702716  1
  C  C3  1  0.90604802  0.00000000  0.29581225  1
  C  C4  1  0.99840979  0.50000000  0.99764687  1
  C  C5  1  0.29751291  0.00000000  0.09647430  1
  C  C6  1  0.39390052  0.50000000  0.80354288  1
  C  C7  1  0.80824400  0.50000000  0.60044665  1
  C  C8  1  0.11310411  0.00000000  0.70042788  1
  C  C9  1  0.19240868  0.50000000  0.40474832  1
  Hf  Hf10  1  0.49769199  0.50000000  0.50214162  1
  Hf  Hf11  1  0.80871582  0.00000000  0.60095017  1
  V  V12  1  0.39246253  0.00000000  0.78921187  1
  V  V13  1  0.10875849  0.50000000  0.69686016  1
  Nb  Nb14  1  0.29510029  0.50000000  0.10211668  1
  Nb  Nb15  1  0.59366164  0.00000000  0.19866275  1
  Ta  Ta16  1  0.69853701  0.50000000  0.90021308  1
  Ta  Ta17  1  0.00707505  0.00000000  0.00004017  1
  Ti  Ti18  1  0.19666674  0.00000000  0.40392224  1
  Ti  Ti19  1  0.90050259  0.50000000  0.30133951  1
