# generated using pymatgen
data_HfTaTiNbVC5
_symmetry_space_group_name_H-M   'P 1'
_cell_length_a   7.01946300
_cell_length_b   4.45349200
_cell_length_c   7.02069100
_cell_angle_alpha   90.00000000
_cell_angle_beta   90.00000000
_cell_angle_gamma   90.00000000
_symmetry_Int_Tables_number   1
_chemical_formula_structural   HfTaTiNbVC5
_chemical_formula_sum   'Hf2 Ta2 Ti2 Nb2 V2 C10'
_cell_volume   219.47468009
_cell_formula_units_Z   2
loop_
 _symmetry_equiv_pos_site_id
 _symmetry_equiv_pos_as_xyz
  1  'x, y, z'
loop_
 _atom_site_type_symbol
 _atom_site_label
 _atom_site_symmetry_multiplicity
 _atom_site_fract_x
 _atom_site_fract_y
 _atom_site_fract_z
 _atom_site_occupancy
  C  C0  1  0.69731953  0.00000000  0.90162512  1
  C  C1  1  0.49134424  0.00000000  0.50679649  1
  C  C2  1  0.60255244  0.50000000  0.19700138  1
  C  C3  1  0.90605050  0.00000000  0.29581134  1
  C  C4  1  0.99840861  0.50000000  0.99766614  1
  C  C5  1  0.29750219  0.00000000  0.09647622  1
  C  C6  1  0.39391979  0.50000000  0.80353741  1
  C  C7  1  0.80822354  0.50000000  0.60046258  1
  C  C8  1  0.11309320  0.00000000  0.70045104  1
  C  C9  1  0.19242712  0.50000000  0.40474263  1
  Hf  Hf10  1  0.49769312  0.50000000  0.50212906  1
  Hf  Hf11  1  0.80871728  0.00000000  0.60097817  1
  V  V12  1  0.39240914  0.00000000  0.78913553  1
  V  V13  1  0.10877809  0.50000000  0.69684423  1
  Nb  Nb14  1  0.29508600  0.50000000  0.10209627  1
  Nb  Nb15  1  0.59362719  0.00000000  0.19861740  1
  Ta  Ta16  1  0.69856464  0.50000000  0.90022697  1
  Ta  Ta17  1  0.00710977  0.00000000  0.00008817  1
  Ti  Ti18  1  0.19666525  0.00000000  0.40394640  1
  Ti  Ti19  1  0.90050837  0.50000000  0.30136745  1
