# generated using pymatgen
data_HfTaTiNbVC5
_symmetry_space_group_name_H-M   'P 1'
_cell_length_a   7.03524000
_cell_length_b   4.46927500
_cell_length_c   7.03647700
_cell_angle_alpha   90.00000000
_cell_angle_beta   90.00000000
_cell_angle_gamma   90.00000000
_symmetry_Int_Tables_number   1
_chemical_formula_structural   HfTaTiNbVC5
_chemical_formula_sum   'Hf2 Ta2 Ti2 Nb2 V2 C10'
_cell_volume   221.24388099
_cell_formula_units_Z   2
loop_
 _symmetry_equiv_pos_site_id
 _symmetry_equiv_pos_as_xyz
  1  'x, y, z'
loop_
 _atom_site_type_symbol
 _atom_site_label
 _atom_site_symmetry_multiplicity
 _atom_site_fract_x
 _atom_site_fract_y
 _atom_site_fract_z
 _atom_site_occupancy
  C  C0  1  0.69757134  0.00000000  0.90175180  1
  C  C1  1  0.49119020  0.00000000  0.50676133  1
  C  C2  1  0.60245996  0.50000000  0.19682210  1
  C  C3  1  0.90596301  0.00000000  0.29584140  1
  C  C4  1  0.99840547  0.50000000  0.99786234  1
  C  C5  1  0.29750768  0.00000000  0.09644228  1
  C  C6  1  0.39400683  0.50000000  0.80349998  1
  C  C7  1  0.80807724  0.50000000  0.60061003  1
  C  C8  1  0.11295052  0.00000000  0.70057516  1
  C  C9  1  0.19251536  0.50000000  0.40466436  1
  Hf  Hf10  1  0.49772582  0.50000000  0.50192883  1
  Hf  Hf11  1  0.80877568  0.00000000  0.60102181  1
  V  V12  1  0.39206947  0.00000000  0.78842438  1
  V  V13  1  0.10895724  0.50000000  0.69657033  1
  Nb  Nb14  1  0.29496811  0.50000000  0.10207495  1
  Nb  Nb15  1  0.59354139  0.00000000  0.19846964  1
  Ta  Ta16  1  0.69880952  0.50000000  0.90042372  1
  Ta  Ta17  1  0.00729607  0.00000000  0.00056225  1
  Ti  Ti18  1  0.19664413  0.00000000  0.40410810  1
  Ti  Ti19  1  0.90056500  0.50000000  0.30158522  1
