# generated using pymatgen
data_HfTaTiNbVC5
_symmetry_space_group_name_H-M   'P 1'
_cell_length_a   7.03724300
_cell_length_b   4.47127800
_cell_length_c   7.03848000
_cell_angle_alpha   90.00000000
_cell_angle_beta   90.00000000
_cell_angle_gamma   90.00000000
_symmetry_Int_Tables_number   1
_chemical_formula_structural   HfTaTiNbVC5
_chemical_formula_sum   'Hf2 Ta2 Ti2 Nb2 V2 C10'
_cell_volume   221.46907992
_cell_formula_units_Z   2
loop_
 _symmetry_equiv_pos_site_id
 _symmetry_equiv_pos_as_xyz
  1  'x, y, z'
loop_
 _atom_site_type_symbol
 _atom_site_label
 _atom_site_symmetry_multiplicity
 _atom_site_fract_x
 _atom_site_fract_y
 _atom_site_fract_z
 _atom_site_occupancy
  C  C0  1  0.69759954  0.00000000  0.90176771  1
  C  C1  1  0.49118619  0.00000000  0.50675391  1
  C  C2  1  0.60244804  0.50000000  0.19680455  1
  C  C3  1  0.90596236  0.00000000  0.29584566  1
  C  C4  1  0.99840564  0.50000000  0.99788008  1
  C  C5  1  0.29750095  0.00000000  0.09644042  1
  C  C6  1  0.39402135  0.50000000  0.80349302  1
  C  C7  1  0.80806098  0.50000000  0.60062413  1
  C  C8  1  0.11294298  0.00000000  0.70058939  1
  C  C9  1  0.19252395  0.50000000  0.40466032  1
  Hf  Hf10  1  0.49772710  0.50000000  0.50191881  1
  Hf  Hf11  1  0.80877482  0.00000000  0.60103843  1
  V  V12  1  0.39203407  0.00000000  0.78836706  1
  V  V13  1  0.10897467  0.50000000  0.69655102  1
  Nb  Nb14  1  0.29495968  0.50000000  0.10205884  1
  Nb  Nb15  1  0.59352192  0.00000000  0.19843961  1
  Ta  Ta16  1  0.69883228  0.50000000  0.90043744  1
  Ta  Ta17  1  0.00731704  0.00000000  0.00060012  1
  Ti  Ti18  1  0.19664015  0.00000000  0.40412141  1
  Ti  Ti19  1  0.90056630  0.50000000  0.30160809  1
