# generated using pymatgen
data_HfTaTiNbVC5
_symmetry_space_group_name_H-M   'P 1'
_cell_length_a   7.02434700
_cell_length_b   4.45838200
_cell_length_c   7.02558400
_cell_angle_alpha   90.00000000
_cell_angle_beta   90.00000000
_cell_angle_gamma   90.00000000
_symmetry_Int_Tables_number   1
_chemical_formula_structural   HfTaTiNbVC5
_chemical_formula_sum   'Hf2 Ta2 Ti2 Nb2 V2 C10'
_cell_volume   220.02177540
_cell_formula_units_Z   2
loop_
 _symmetry_equiv_pos_site_id
 _symmetry_equiv_pos_as_xyz
  1  'x, y, z'
loop_
 _atom_site_type_symbol
 _atom_site_label
 _atom_site_symmetry_multiplicity
 _atom_site_fract_x
 _atom_site_fract_y
 _atom_site_fract_z
 _atom_site_occupancy
  C  C0  1  0.69743251  0.00000000  0.90166625  1
  C  C1  1  0.49120209  0.00000000  0.50680261  1
  C  C2  1  0.60252438  0.50000000  0.19691848  1
  C  C3  1  0.90596519  0.00000000  0.29581049  1
  C  C4  1  0.99840655  0.50000000  0.99775619  1
  C  C5  1  0.29754510  0.00000000  0.09646595  1
  C  C6  1  0.39392236  0.50000000  0.80354052  1
  C  C7  1  0.80816611  0.50000000  0.60054376  1
  C  C8  1  0.11299378  0.00000000  0.70049095  1
  C  C9  1  0.19246380  0.50000000  0.40469483  1
  Hf  Hf10  1  0.49771435  0.50000000  0.50198955  1
  Hf  Hf11  1  0.80878141  0.00000000  0.60092728  1
  V  V12  1  0.39225165  0.00000000  0.78871616  1
  V  V13  1  0.10886325  0.50000000  0.69667498  1
  Nb  Nb14  1  0.29501528  0.50000000  0.10217914  1
  Nb  Nb15  1  0.59364347  0.00000000  0.19863255  1
  Ta  Ta16  1  0.69869094  0.50000000  0.90035003  1
  Ta  Ta17  1  0.00719528  0.00000000  0.00035112  1
  Ti  Ti18  1  0.19666143  0.00000000  0.40404678  1
  Ti  Ti19  1  0.90056109  0.50000000  0.30144235  1
