# generated using pymatgen
data_HfTaTiNbVC5
_symmetry_space_group_name_H-M   'P 1'
_cell_length_a   7.05150600
_cell_length_b   4.48554100
_cell_length_c   7.05274300
_cell_angle_alpha   90.00000000
_cell_angle_beta   90.00000000
_cell_angle_gamma   90.00000000
_symmetry_Int_Tables_number   1
_chemical_formula_structural   HfTaTiNbVC5
_chemical_formula_sum   'Hf2 Ta2 Ti2 Nb2 V2 C10'
_cell_volume   223.07698648
_cell_formula_units_Z   2
loop_
 _symmetry_equiv_pos_site_id
 _symmetry_equiv_pos_as_xyz
  1  'x, y, z'
loop_
 _atom_site_type_symbol
 _atom_site_label
 _atom_site_symmetry_multiplicity
 _atom_site_fract_x
 _atom_site_fract_y
 _atom_site_fract_z
 _atom_site_occupancy
  C  C0  1  0.69781203  0.00000000  0.90188396  1
  C  C1  1  0.49115669  0.00000000  0.50669378  1
  C  C2  1  0.60237273  0.50000000  0.19667493  1
  C  C3  1  0.90596224  0.00000000  0.29587608  1
  C  C4  1  0.99840811  0.50000000  0.99802032  1
  C  C5  1  0.29745562  0.00000000  0.09642556  1
  C  C6  1  0.39413096  0.50000000  0.80343497  1
  C  C7  1  0.80794163  0.50000000  0.60071952  1
  C  C8  1  0.11288806  0.00000000  0.70069372  1
  C  C9  1  0.19258829  0.50000000  0.40462303  1
  Hf  Hf10  1  0.49773224  0.50000000  0.50185452  1
  Hf  Hf11  1  0.80876741  0.00000000  0.60115999  1
  V  V12  1  0.39176621  0.00000000  0.78793961  1
  V  V13  1  0.10908818  0.50000000  0.69640320  1
  Nb  Nb14  1  0.29489657  0.50000000  0.10194344  1
  Nb  Nb15  1  0.59338660  0.00000000  0.19821539  1
  Ta  Ta16  1  0.69900584  0.50000000  0.90054797  1
  Ta  Ta17  1  0.00747314  0.00000000  0.00089732  1
  Ti  Ti18  1  0.19660161  0.00000000  0.40421194  1
  Ti  Ti19  1  0.90056588  0.50000000  0.30178076  1
