# generated using pymatgen
data_HfTaTiNbVC5
_symmetry_space_group_name_H-M   'P 1'
_cell_length_a   7.04922900
_cell_length_b   4.48326400
_cell_length_c   7.05046600
_cell_angle_alpha   90.00000000
_cell_angle_beta   90.00000000
_cell_angle_gamma   90.00000000
_symmetry_Int_Tables_number   1
_chemical_formula_structural   HfTaTiNbVC5
_chemical_formula_sum   'Hf2 Ta2 Ti2 Nb2 V2 C10'
_cell_volume   222.81978721
_cell_formula_units_Z   2
loop_
 _symmetry_equiv_pos_site_id
 _symmetry_equiv_pos_as_xyz
  1  'x, y, z'
loop_
 _atom_site_type_symbol
 _atom_site_label
 _atom_site_symmetry_multiplicity
 _atom_site_fract_x
 _atom_site_fract_y
 _atom_site_fract_z
 _atom_site_occupancy
  C  C0  1  0.69776935  0.00000000  0.90186316  1
  C  C1  1  0.49116257  0.00000000  0.50670829  1
  C  C2  1  0.60237574  0.50000000  0.19669655  1
  C  C3  1  0.90596477  0.00000000  0.29587124  1
  C  C4  1  0.99840683  0.50000000  0.99798210  1
  C  C5  1  0.29746367  0.00000000  0.09641930  1
  C  C6  1  0.39410266  0.50000000  0.80344751  1
  C  C7  1  0.80796043  0.50000000  0.60070597  1
  C  C8  1  0.11290366  0.00000000  0.70067501  1
  C  C9  1  0.19257727  0.50000000  0.40463518  1
  Hf  Hf10  1  0.49772893  0.50000000  0.50185989  1
  Hf  Hf11  1  0.80877410  0.00000000  0.60113906  1
  V  V12  1  0.39181662  0.00000000  0.78802212  1
  V  V13  1  0.10907791  0.50000000  0.69643499  1
  Nb  Nb14  1  0.29490611  0.50000000  0.10195809  1
  Nb  Nb15  1  0.59340828  0.00000000  0.19825591  1
  Ta  Ta16  1  0.69897716  0.50000000  0.90052585  1
  Ta  Ta17  1  0.00744480  0.00000000  0.00083943  1
  Ti  Ti18  1  0.19660939  0.00000000  0.40420383  1
  Ti  Ti19  1  0.90056980  0.50000000  0.30175651  1
