# generated using pymatgen
data_Ti15CoN16
_symmetry_space_group_name_H-M   'P 1'
_cell_length_a   5.99927605
_cell_length_b   5.99927605
_cell_length_c   8.48520219
_cell_angle_alpha   90.00000000
_cell_angle_beta   90.00000000
_cell_angle_gamma   90.00000000
_symmetry_Int_Tables_number   1
_chemical_formula_structural   Ti15CoN16
_chemical_formula_sum   'Ti15 Co1 N16'
_cell_volume   305.39356894
_cell_formula_units_Z   1
loop_
 _symmetry_equiv_pos_site_id
 _symmetry_equiv_pos_as_xyz
  1  'x, y, z'
loop_
 _atom_site_type_symbol
 _atom_site_label
 _atom_site_symmetry_multiplicity
 _atom_site_fract_x
 _atom_site_fract_y
 _atom_site_fract_z
 _atom_site_occupancy
  Co  Co0  1  0.25000000  0.75000000  0.75000000  1
  N  N1  1  0.75000008  0.74999932  0.50115939  1
  N  N2  1  0.75000006  0.24999890  0.50135084  1
  N  N3  1  0.25000011  0.74999954  0.49673643  1
  N  N4  1  0.25000017  0.24999896  0.50117050  1
  N  N5  1  0.49974655  0.50024112  0.24999995  1
  N  N6  1  0.49973810  0.99974131  0.25000026  1
  N  N7  1  0.74999992  0.75000068  -0.00115939  1
  N  N8  1  0.74999994  0.25000110  0.99864916  1
  N  N9  1  0.00026190  0.50025869  0.24999974  1
  N  N10  1  0.00025345  0.99975888  0.25000005  1
  N  N11  1  0.24999989  0.75000046  0.00326357  1
  N  N12  1  0.24999983  0.25000104  -0.00117050  1
  N  N13  1  0.50226889  0.49778451  0.74999996  1
  N  N14  1  0.50280530  0.00276019  0.74999998  1
  N  N15  1  0.99719470  0.49723981  0.75000002  1
  N  N16  1  0.99773111  0.00221549  0.75000004  1
  Ti  Ti17  1  0.75000000  0.25000000  0.75000000  1
  Ti  Ti18  1  0.75000000  0.75000000  0.75000000  1
  Ti  Ti19  1  0.25000000  0.25000000  0.75000000  1
  Ti  Ti20  1  0.50090912  0.00092846  0.49993053  1
  Ti  Ti21  1  0.50110874  0.49888340  0.50099929  1
  Ti  Ti22  1  0.75000000  0.25000000  0.25000000  1
  Ti  Ti23  1  0.75000000  0.75000000  0.25000000  1
  Ti  Ti24  1  -0.00110854  0.00111495  0.50099923  1
  Ti  Ti25  1  -0.00090866  0.49906991  0.49993027  1
  Ti  Ti26  1  0.25000000  0.25000000  0.25000000  1
  Ti  Ti27  1  0.25000000  0.75000000  0.25000000  1
  Ti  Ti28  1  0.50090866  0.00093009  0.00006973  1
  Ti  Ti29  1  0.50110854  0.49888505  0.99900077  1
  Ti  Ti30  1  -0.00110874  0.00111660  0.99900071  1
  Ti  Ti31  1  -0.00090912  0.49907154  0.00006947  1
