# generated using pymatgen
data_HfTaTiNbVC5
_symmetry_space_group_name_H-M   'P 1'
_cell_length_a   7.05349900
_cell_length_b   4.48753400
_cell_length_c   7.05473600
_cell_angle_alpha   90.00000000
_cell_angle_beta   90.00000000
_cell_angle_gamma   90.00000000
_symmetry_Int_Tables_number   1
_chemical_formula_structural   HfTaTiNbVC5
_chemical_formula_sum   'Hf2 Ta2 Ti2 Nb2 V2 C10'
_cell_volume   223.30226464
_cell_formula_units_Z   2
loop_
 _symmetry_equiv_pos_site_id
 _symmetry_equiv_pos_as_xyz
  1  'x, y, z'
loop_
 _atom_site_type_symbol
 _atom_site_label
 _atom_site_symmetry_multiplicity
 _atom_site_fract_x
 _atom_site_fract_y
 _atom_site_fract_z
 _atom_site_occupancy
  C  C0  1  0.69784246  0.00000000  0.90189632  1
  C  C1  1  0.49115142  0.00000000  0.50668669  1
  C  C2  1  0.60236256  0.50000000  0.19665679  1
  C  C3  1  0.90596378  0.00000000  0.29588092  1
  C  C4  1  0.99840670  0.50000000  0.99803270  1
  C  C5  1  0.29744850  0.00000000  0.09642163  1
  C  C6  1  0.39413878  0.50000000  0.80342786  1
  C  C7  1  0.80792785  0.50000000  0.60073137  1
  C  C8  1  0.11287702  0.00000000  0.70070669  1
  C  C9  1  0.19259608  0.50000000  0.40462253  1
  Hf  Hf10  1  0.49772977  0.50000000  0.50184165  1
  Hf  Hf11  1  0.80877237  0.00000000  0.60117668  1
  V  V12  1  0.39172862  0.00000000  0.78788532  1
  V  V13  1  0.10910710  0.50000000  0.69638392  1
  Nb  Nb14  1  0.29488406  0.50000000  0.10192739  1
  Nb  Nb15  1  0.59337224  0.00000000  0.19818238  1
  Ta  Ta16  1  0.69903298  0.50000000  0.90056505  1
  Ta  Ta17  1  0.00749204  0.00000000  0.00093364  1
  Ti  Ti18  1  0.19659479  0.00000000  0.40422434  1
  Ti  Ti19  1  0.90057091  0.50000000  0.30181612  1
