# generated using pymatgen
data_AlNi
_symmetry_space_group_name_H-M   'P 1'
_cell_length_a   6.11346337
_cell_length_b   5.34594967
_cell_length_c   7.74601992
_cell_angle_alpha   89.96478982
_cell_angle_beta   90.42758967
_cell_angle_gamma   95.21894314
_symmetry_Int_Tables_number   1
_chemical_formula_structural   AlNi
_chemical_formula_sum   'Al10 Ni10'
_cell_volume   252.10097901
_cell_formula_units_Z   10
loop_
 _symmetry_equiv_pos_site_id
 _symmetry_equiv_pos_as_xyz
  1  'x, y, z'
loop_
 _atom_site_type_symbol
 _atom_site_label
 _atom_site_symmetry_multiplicity
 _atom_site_fract_x
 _atom_site_fract_y
 _atom_site_fract_z
 _atom_site_occupancy
  Al  Al0  1  0.10106133  0.27524299  0.74571944  1
  Al  Al1  1  0.06654314  0.27619536  0.26057628  1
  Al  Al2  1  0.19723767  0.64036526  0.48932752  1
  Al  Al3  1  0.40119396  0.16082539  0.48157792  1
  Al  Al4  1  0.50656197  0.53258636  0.74939440  1
  Al  Al5  1  0.68518829  0.08841920  0.74071244  1
  Al  Al6  1  0.39072687  0.16141319  0.01010590  1
  Al  Al7  1  0.52001560  0.54080704  0.24947982  1
  Al  Al8  1  0.93137140  0.71920087  0.75609483  1
  Al  Al9  1  0.80957208  0.41001490  0.01481292  1
  Ni  Ni10  1  0.99314215  0.00317203  0.50772164  1
  Ni  Ni11  1  0.00041858  0.01651364  0.99991591  1
  Ni  Ni12  1  0.30688474  0.90429918  0.74857660  1
  Ni  Ni13  1  0.20295081  0.56112645  0.99365139  1
  Ni  Ni14  1  0.28398985  0.88594766  0.23869910  1
  Ni  Ni15  1  0.60511218  0.79674142  0.50089964  1
  Ni  Ni16  1  0.67888473  0.11314278  0.24836280  1
  Ni  Ni17  1  0.80511358  0.40798582  0.52062567  1
  Ni  Ni18  1  0.61414025  0.79968389  0.99134409  1
  Ni  Ni19  1  0.89989080  0.70631658  0.25240172  1
