# generated using pymatgen
data_HfTiC2
_symmetry_space_group_name_H-M   'P 1'
_cell_length_a   11.02278406
_cell_length_b   11.02079645
_cell_length_c   5.51429447
_cell_angle_alpha   99.60291198
_cell_angle_beta   99.61111715
_cell_angle_gamma   33.62832155
_symmetry_Int_Tables_number   1
_chemical_formula_structural   HfTiC2
_chemical_formula_sum   'Hf8 Ti8 C16'
_cell_volume   365.29775147
_cell_formula_units_Z   8
loop_
 _symmetry_equiv_pos_site_id
 _symmetry_equiv_pos_as_xyz
  1  'x, y, z'
loop_
 _atom_site_type_symbol
 _atom_site_label
 _atom_site_symmetry_multiplicity
 _atom_site_fract_x
 _atom_site_fract_y
 _atom_site_fract_z
 _atom_site_occupancy
  C  C0  1  0.18330388  0.19409163  0.12201108  1
  C  C1  1  0.68778365  0.18744650  0.12493385  1
  C  C2  1  0.30413830  0.31347010  0.86867613  1
  C  C3  1  0.42813695  0.44661078  0.62514040  1
  C  C4  1  0.81725207  0.31760528  0.87897040  1
  C  C5  1  0.18739792  0.68757204  0.12410485  1
  C  C6  1  0.56478387  0.56535252  0.38283678  1
  C  C7  1  0.94219899  0.43071604  0.62790850  1
  C  C8  1  0.69260572  0.68211442  0.11531193  1
  C  C9  1  0.06468414  0.55499637  0.37762969  1
  C  C10  1  0.31526275  0.81471254  0.86444875  1
  C  C11  1  0.43229852  0.94263113  0.63455156  1
  C  C12  1  0.81475028  0.80534182  0.87563176  1
  C  C13  1  0.55430069  0.06305334  0.36981640  1
  C  C14  1  0.94661276  0.92842619  0.62572290  1
  C  C15  1  0.06484681  0.06555559  0.38273034  1
  Hf  Hf16  1  0.75074148  0.74551430  0.50057202  1
  Hf  Hf17  1  0.87636448  0.87047902  0.24925116  1
  Hf  Hf18  1  0.00352511  0.00004779  0.00041058  1
  Hf  Hf19  1  0.37523753  0.87806316  0.25062802  1
  Hf  Hf20  1  0.75177846  0.25203063  0.50340231  1
  Hf  Hf21  1  0.62215429  0.12423263  0.74829433  1
  Hf  Hf22  1  0.37065406  0.37562404  0.24790378  1
  Hf  Hf23  1  0.49984225  0.50352818  0.00061308  1
  Ti  Ti24  1  0.25124398  0.75113757  0.50252173  1
  Ti  Ti25  1  0.12589451  0.12800058  0.75067135  1
  Ti  Ti26  1  0.49554821  0.00098515  0.99715289  1
  Ti  Ti27  1  0.24616314  0.25117752  0.50111646  1
  Ti  Ti28  1  0.87839774  0.37535741  0.25012554  1
  Ti  Ti29  1  0.00029359  0.49606727  0.99659273  1
  Ti  Ti30  1  0.12446259  0.62294009  0.74920614  1
  Ti  Ti31  1  0.62734126  0.62511837  0.75111262  1
