# generated using pymatgen
data_Ti11CoN12
_symmetry_space_group_name_H-M   'P 1'
_cell_length_a   5.19012093
_cell_length_b   5.99442181
_cell_length_c   7.35394474
_cell_angle_alpha   90.00283063
_cell_angle_beta   90.06799521
_cell_angle_gamma   89.99926087
_symmetry_Int_Tables_number   1
_chemical_formula_structural   Ti11CoN12
_chemical_formula_sum   'Ti11 Co1 N12'
_cell_volume   228.79410602
_cell_formula_units_Z   1
loop_
 _symmetry_equiv_pos_site_id
 _symmetry_equiv_pos_as_xyz
  1  'x, y, z'
loop_
 _atom_site_type_symbol
 _atom_site_label
 _atom_site_symmetry_multiplicity
 _atom_site_fract_x
 _atom_site_fract_y
 _atom_site_fract_z
 _atom_site_occupancy
  Ti  Ti0  1  0.50159117  0.25008594  0.00532671  1
  Ti  Ti1  1  0.32188535  0.99999487  0.67302224  1
  Ti  Ti2  1  0.16666038  0.74617844  0.33331746  1
  Ti  Ti3  1  0.50176007  0.74991131  0.00529292  1
  Ti  Ti4  1  0.34529309  0.49999072  0.67180483  1
  Ti  Ti5  1  0.01144796  0.00000513  0.99364445  1
  Ti  Ti6  1  0.83174214  0.74991399  0.66133998  1
  Ti  Ti7  1  0.98804022  0.50000922  0.99486180  1
  Ti  Ti8  1  0.16667294  0.25382149  0.33334916  1
  Ti  Ti9  1  0.83157324  0.25008868  0.66137377  1
  Ti  Ti10  1  0.66666663  -0.00000000  0.33333331  1
  Co  Co11  1  0.66666663  0.49999997  0.33333331  1
  N  N12  1  0.16672490  0.25211202  0.83334892  1
  N  N13  1  0.49703602  0.24731561  0.50119948  1
  N  N14  1  0.33243232  -0.00001402  0.16836534  1
  N  N15  1  0.16660840  0.74788797  0.83331770  1
  N  N16  1  0.49695253  0.75287434  0.50129698  1
  N  N17  1  0.32812450  0.49997004  0.16472305  1
  N  N18  1  0.83638075  0.24712559  0.16536965  1
  N  N19  1  0.66666669  -0.00000000  0.83333331  1
  N  N20  1  0.00090099  0.00001402  0.49830132  1
  N  N21  1  0.83629726  0.75268432  0.16546715  1
  N  N22  1  0.66666669  0.49999997  0.83333331  1
  N  N23  1  0.00520881  0.50002990  0.50194361  1
