# generated using pymatgen
data_Al7SiN8
_symmetry_space_group_name_H-M   'P 1'
_cell_length_a   5.78947601
_cell_length_b   5.78947601
_cell_length_c   8.21930553
_cell_angle_alpha   89.96358568
_cell_angle_beta   90.03641441
_cell_angle_gamma   89.94076861
_symmetry_Int_Tables_number   1
_chemical_formula_structural   Al7SiN8
_chemical_formula_sum   'Al14 Si2 N16'
_cell_volume   275.49469132
_cell_formula_units_Z   2
loop_
 _symmetry_equiv_pos_site_id
 _symmetry_equiv_pos_as_xyz
  1  'x, y, z'
loop_
 _atom_site_type_symbol
 _atom_site_label
 _atom_site_symmetry_multiplicity
 _atom_site_fract_x
 _atom_site_fract_y
 _atom_site_fract_z
 _atom_site_occupancy
  Si  Si0  1  0.49555928  0.50444072  0.51079602  1
  Si  Si1  1  0.25444072  0.74555928  0.23920398  1
  N  N2  1  0.75026621  0.75013689  0.50100169  1
  N  N3  1  0.75024785  0.24975215  0.50148242  1
  N  N4  1  0.25214135  0.74785865  0.50862475  1
  N  N5  1  0.24986311  0.24973379  0.50100169  1
  N  N6  1  0.49785865  0.50214135  0.24137525  1
  N  N7  1  0.50013689  0.00026621  0.24899831  1
  N  N8  1  0.75041389  0.75042712  0.99886768  1
  N  N9  1  0.74956569  0.25043431  0.99710409  1
  N  N10  1  0.99973379  0.49986311  0.24899831  1
  N  N11  1  0.99975215  0.00024785  0.24851758  1
  N  N12  1  0.25003440  0.74996560  0.00192513  1
  N  N13  1  0.24957288  0.24958611  0.99886768  1
  N  N14  1  0.49996560  0.50003440  0.74807487  1
  N  N15  1  0.50042712  0.00041389  0.75113232  1
  N  N16  1  0.99958611  0.49957288  0.75113232  1
  N  N17  1  0.00043431  0.99956569  0.75289591  1
  Al  Al18  1  0.75212789  0.24787211  0.74982058  1
  Al  Al19  1  0.75263437  0.75250446  0.75158107  1
  Al  Al20  1  0.24749554  0.24736563  0.75158107  1
  Al  Al21  1  0.24790975  0.75209025  0.75220044  1
  Al  Al22  1  0.49964011  0.00028366  0.50062335  1
  Al  Al23  1  0.74832749  0.25167251  0.25055223  1
  Al  Al24  1  0.75028366  0.74964011  0.24937665  1
  Al  Al25  1  0.00167251  0.99832749  0.49944777  1
  Al  Al26  1  0.99971634  0.50035989  0.50062335  1
  Al  Al27  1  0.25035989  0.24971634  0.24937665  1
  Al  Al28  1  0.50250446  0.00263437  0.99841893  1
  Al  Al29  1  0.50209025  0.49790975  0.99779956  1
  Al  Al30  1  0.99787211  0.00212789  0.00017942  1
  Al  Al31  1  0.99736563  0.49749554  0.99841893  1
