# generated using pymatgen
data_Ti7NbN8
_symmetry_space_group_name_H-M   'P 1'
_cell_length_a   6.03347886
_cell_length_b   6.03347887
_cell_length_c   8.57152235
_cell_angle_alpha   89.95255673
_cell_angle_beta   90.04744331
_cell_angle_gamma   90.00753048
_symmetry_Int_Tables_number   1
_chemical_formula_structural   Ti7NbN8
_chemical_formula_sum   'Ti14 Nb2 N16'
_cell_volume   312.02777330
_cell_formula_units_Z   2
loop_
 _symmetry_equiv_pos_site_id
 _symmetry_equiv_pos_as_xyz
  1  'x, y, z'
loop_
 _atom_site_type_symbol
 _atom_site_label
 _atom_site_symmetry_multiplicity
 _atom_site_fract_x
 _atom_site_fract_y
 _atom_site_fract_z
 _atom_site_occupancy
  Nb  Nb0  1  0.49987024  0.50012976  0.50010504  1
  Nb  Nb1  1  0.25012991  0.74987009  0.24989523  1
  N  N2  1  0.75447792  0.75468114  0.49990417  1
  N  N3  1  0.75394655  0.24605345  0.50052300  1
  N  N4  1  0.24463521  0.75536479  0.50542138  1
  N  N5  1  0.24531886  0.24552208  0.49990417  1
  N  N6  1  0.50536480  0.49463520  0.24457888  1
  N  N7  1  0.50468115  0.00447796  0.25009581  1
  N  N8  1  0.75046316  0.75040114  0.99993451  1
  N  N9  1  0.75049846  0.24950154  0.99913894  1
  N  N10  1  0.99552204  0.49531885  0.25009581  1
  N  N11  1  0.99605339  0.00394661  0.24947718  1
  N  N12  1  0.24983108  0.75016892  0.99609266  1
  N  N13  1  0.24959886  0.24953684  0.99993451  1
  N  N14  1  0.50016891  0.49983109  0.75390711  1
  N  N15  1  0.50040115  0.00046312  0.75006548  1
  N  N16  1  0.99953688  0.49959885  0.75006548  1
  N  N17  1  0.99950158  0.00049842  0.75086089  1
  Ti  Ti18  1  0.75051629  0.24948371  0.75176402  1
  Ti  Ti19  1  0.75005632  0.75021401  0.75140823  1
  Ti  Ti20  1  0.24978599  0.24994368  0.75140823  1
  Ti  Ti21  1  0.24922677  0.75077323  0.75157625  1
  Ti  Ti22  1  0.49996573  0.00034544  0.50141083  1
  Ti  Ti23  1  0.75107990  0.24892010  0.24799316  1
  Ti  Ti24  1  0.75034542  0.74996554  0.24858918  1
  Ti  Ti25  1  0.99892007  0.00107993  0.50200684  1
  Ti  Ti26  1  0.99965456  0.50003427  0.50141083  1
  Ti  Ti27  1  0.25003446  0.24965458  0.24858918  1
  Ti  Ti28  1  0.50021407  0.00005641  0.99859169  1
  Ti  Ti29  1  0.50077329  0.49922671  0.99842372  1
  Ti  Ti30  1  0.99948340  0.00051660  0.99823589  1
  Ti  Ti31  1  0.99994359  0.49978593  0.99859169  1
