# generated using pymatgen
data_Ti15CoN16
_symmetry_space_group_name_H-M   'P 1'
_cell_length_a   5.99927605
_cell_length_b   5.99927605
_cell_length_c   8.48520219
_cell_angle_alpha   90.00000000
_cell_angle_beta   90.00000000
_cell_angle_gamma   90.00000000
_symmetry_Int_Tables_number   1
_chemical_formula_structural   Ti15CoN16
_chemical_formula_sum   'Ti15 Co1 N16'
_cell_volume   305.39356894
_cell_formula_units_Z   1
loop_
 _symmetry_equiv_pos_site_id
 _symmetry_equiv_pos_as_xyz
  1  'x, y, z'
loop_
 _atom_site_type_symbol
 _atom_site_label
 _atom_site_symmetry_multiplicity
 _atom_site_fract_x
 _atom_site_fract_y
 _atom_site_fract_z
 _atom_site_occupancy
  Co  Co0  1  0.25000000  0.75000000  0.75000000  1
  N  N1  1  0.74999999  0.75000000  0.49967019  1
  N  N2  1  0.74999998  0.25000001  0.50250837  1
  N  N3  1  0.25000000  0.75000000  0.50063154  1
  N  N4  1  0.25000000  0.25000001  0.49967016  1
  N  N5  1  0.49908050  0.50091946  0.25000000  1
  N  N6  1  0.49908048  0.99908051  0.25000000  1
  N  N7  1  0.75000001  0.75000000  0.00032981  1
  N  N8  1  0.75000002  0.24999999  0.99749163  1
  N  N9  1  0.00091952  0.50091949  0.25000000  1
  N  N10  1  0.00091950  0.99908054  0.25000000  1
  N  N11  1  0.25000000  0.75000000  -0.00063154  1
  N  N12  1  0.25000000  0.24999999  0.00032984  1
  N  N13  1  0.50169924  0.49830080  0.74999999  1
  N  N14  1  0.50169967  0.00169962  0.74999999  1
  N  N15  1  0.99830033  0.49830038  0.75000001  1
  N  N16  1  0.99830076  0.00169920  0.75000001  1
  Ti  Ti17  1  0.75000000  0.25000000  0.75000000  1
  Ti  Ti18  1  0.75000000  0.75000000  0.75000000  1
  Ti  Ti19  1  0.25000000  0.25000000  0.75000000  1
  Ti  Ti20  1  0.49963356  0.99963357  0.50244513  1
  Ti  Ti21  1  0.49963346  0.50036653  0.50244515  1
  Ti  Ti22  1  0.75000000  0.25000000  0.25000000  1
  Ti  Ti23  1  0.75000000  0.75000000  0.25000000  1
  Ti  Ti24  1  0.00036651  0.99963350  0.50244517  1
  Ti  Ti25  1  0.00036643  0.50036643  0.50244513  1
  Ti  Ti26  1  0.25000000  0.25000000  0.25000000  1
  Ti  Ti27  1  0.25000000  0.75000000  0.25000000  1
  Ti  Ti28  1  0.49963357  0.99963357  0.99755487  1
  Ti  Ti29  1  0.49963349  0.50036650  0.99755483  1
  Ti  Ti30  1  0.00036654  0.99963347  0.99755485  1
  Ti  Ti31  1  0.00036644  0.50036643  0.99755487  1
