# generated using pymatgen
data_NbAl7N8
_symmetry_space_group_name_H-M   'P 1'
_cell_length_a   5.84765153
_cell_length_b   5.84765153
_cell_length_c   8.28472760
_cell_angle_alpha   89.51179857
_cell_angle_beta   90.48820143
_cell_angle_gamma   89.90058536
_symmetry_Int_Tables_number   1
_chemical_formula_structural   NbAl7N8
_chemical_formula_sum   'Nb2 Al14 N16'
_cell_volume   283.27546519
_cell_formula_units_Z   2
loop_
 _symmetry_equiv_pos_site_id
 _symmetry_equiv_pos_as_xyz
  1  'x, y, z'
loop_
 _atom_site_type_symbol
 _atom_site_label
 _atom_site_symmetry_multiplicity
 _atom_site_fract_x
 _atom_site_fract_y
 _atom_site_fract_z
 _atom_site_occupancy
  Nb  Nb0  1  0.48439277  0.51560723  0.48536198  1
  Nb  Nb1  1  0.26560723  0.73439277  0.26463802  1
  N  N2  1  0.75757219  0.76070515  0.49965603  1
  N  N3  1  0.75559634  0.24440366  0.50332475  1
  N  N4  1  0.23087342  0.76912658  0.52101483  1
  N  N5  1  0.23929485  0.24242781  0.49965603  1
  N  N6  1  0.51912658  0.48087342  0.22898517  1
  N  N7  1  0.51070515  0.00757219  0.25034397  1
  N  N8  1  0.75250365  0.75084024  0.99942236  1
  N  N9  1  0.75322507  0.24677493  0.99583007  1
  N  N10  1  0.99242781  0.48929485  0.25034397  1
  N  N11  1  0.99440366  0.00559634  0.24667525  1
  N  N12  1  0.25048476  0.74951524  0.99239331  1
  N  N13  1  0.24915976  0.24749635  0.99942236  1
  N  N14  1  0.49951524  0.50048476  0.75760669  1
  N  N15  1  0.50084024  0.00250365  0.75057764  1
  N  N16  1  0.99749635  0.49915976  0.75057764  1
  N  N17  1  0.99677493  0.00322507  0.75416993  1
  Al  Al18  1  0.74933733  0.25066267  0.75254922  1
  Al  Al19  1  0.75101390  0.75202407  0.75332454  1
  Al  Al20  1  0.24797593  0.24898610  0.75332454  1
  Al  Al21  1  0.24730864  0.75269136  0.75502626  1
  Al  Al22  1  0.50444516  0.00853906  0.50520410  1
  Al  Al23  1  0.75464896  0.24535104  0.24553064  1
  Al  Al24  1  0.75853906  0.75444516  0.24479590  1
  Al  Al25  1  0.99535104  0.00464896  0.50446936  1
  Al  Al26  1  0.99146094  0.49555484  0.50520410  1
  Al  Al27  1  0.24555484  0.24146094  0.24479590  1
  Al  Al28  1  0.50202407  0.00101390  0.99667546  1
  Al  Al29  1  0.50269136  0.49730864  0.99497374  1
  Al  Al30  1  0.00066267  0.99933733  0.99745078  1
  Al  Al31  1  0.99898610  0.49797593  0.99667546  1
