# generated using pymatgen
data_Al31CrN32
_symmetry_space_group_name_H-M   'P 1'
_cell_length_a   11.29736278
_cell_length_b   11.29736234
_cell_length_c   10.02365991
_cell_angle_alpha   89.97520860
_cell_angle_beta   90.02479138
_cell_angle_gamma   147.77292818
_symmetry_Int_Tables_number   1
_chemical_formula_structural   Al31CrN32
_chemical_formula_sum   'Al31 Cr1 N32'
_cell_volume   682.23261955
_cell_formula_units_Z   1
loop_
 _symmetry_equiv_pos_site_id
 _symmetry_equiv_pos_as_xyz
  1  'x, y, z'
loop_
 _atom_site_type_symbol
 _atom_site_label
 _atom_site_symmetry_multiplicity
 _atom_site_fract_x
 _atom_site_fract_y
 _atom_site_fract_z
 _atom_site_occupancy
  Al  Al0  1  0.54168869  0.95831119  0.99842304  1
  Al  Al1  1  0.41559847  0.58290099  0.99830404  1
  Al  Al2  1  0.29179071  0.20820920  0.99863876  1
  Al  Al3  1  0.91709889  0.08440141  0.99830426  1
  Al  Al4  1  0.79204563  0.70795440  0.99801548  1
  Al  Al5  1  0.66654544  0.33300611  0.99839917  1
  Al  Al6  1  0.16699378  0.83345450  0.99839915  1
  Al  Al7  1  0.04135479  0.45864517  0.99847562  1
  Al  Al8  1  0.54172808  0.95827175  0.49844074  1
  Al  Al9  1  0.41409967  0.58138593  0.49756015  1
  Al  Al10  1  0.29178002  0.20821977  0.49806500  1
  Al  Al11  1  0.91861393  0.08590008  0.49755978  1
  Al  Al12  1  0.79246413  0.70753594  0.49741577  1
  Al  Al13  1  0.66646369  0.33298053  0.49839388  1
  Al  Al14  1  0.16701936  0.83353624  0.49839392  1
  Al  Al15  1  0.04140541  0.45859466  0.49872554  1
  Al  Al16  1  0.33132606  0.66619693  0.74878727  1
  Al  Al17  1  0.20886901  0.29113214  0.74982453  1
  Al  Al18  1  0.08541971  0.91749092  0.74869654  1
  Al  Al19  1  0.58250956  0.41458102  0.74869634  1
  Al  Al20  1  0.45870348  0.04129645  0.74830454  1
  Al  Al21  1  0.95772074  0.54227924  0.74830821  1
  Al  Al22  1  0.83380288  0.16867377  0.74878724  1
  Al  Al23  1  0.33307962  0.66676769  0.24824620  1
  Al  Al24  1  0.20848982  0.29151025  0.24760603  1
  Al  Al25  1  0.08372978  0.91683446  0.24799181  1
  Al  Al26  1  0.70830640  0.79169340  0.24895457  1
  Al  Al27  1  0.58316549  0.41627017  0.24799177  1
  Al  Al28  1  0.45836712  0.04163280  0.24836889  1
  Al  Al29  1  0.95825834  0.54174166  0.24838980  1
  Al  Al30  1  0.83323226  0.16692036  0.24824625  1
  Cr  Cr31  1  0.70830053  0.79169967  0.74472986  1
  N  N32  1  0.54167862  0.95832138  0.18923267  1
  N  N33  1  0.41689683  0.58362839  0.18964291  1
  N  N34  1  0.29178384  0.20821607  0.18908873  1
  N  N35  1  0.91637153  0.08310310  0.18964301  1
  N  N36  1  0.79160914  0.70839080  0.18955414  1
  N  N37  1  0.66666654  0.33317320  0.18919861  1
  N  N38  1  0.16682672  0.83333337  0.18919858  1
  N  N39  1  0.04157213  0.45842772  0.18927595  1
  N  N40  1  0.54183706  0.95816271  0.68928966  1
  N  N41  1  0.40552635  0.57562212  0.68796858  1
  N  N42  1  0.29187565  0.20812477  0.68911564  1
  N  N43  1  0.92437808  0.09447416  0.68796838  1
  N  N44  1  0.79554669  0.70445331  0.68750832  1
  N  N45  1  0.66565007  0.33155613  0.68923214  1
  N  N46  1  0.16844388  0.83434990  0.68923218  1
  N  N47  1  0.04053275  0.45946687  0.68942533  1
  N  N48  1  0.33264573  0.66647784  0.93964772  1
  N  N49  1  0.20837517  0.29162479  0.94033610  1
  N  N50  1  0.08381858  0.91692276  0.93955588  1
  N  N51  1  0.70824697  0.79175332  0.94140798  1
  N  N52  1  0.58307728  0.41618153  0.93955581  1
  N  N53  1  0.45842084  0.04157911  0.93933926  1
  N  N54  1  0.95807442  0.54192554  0.93937882  1
  N  N55  1  0.83352216  0.16735417  0.93964770  1
  N  N56  1  0.33285929  0.66664665  0.43894382  1
  N  N57  1  0.20862607  0.29137387  0.43806104  1
  N  N58  1  0.08412502  0.91718325  0.43859397  1
  N  N59  1  0.70831735  0.79168246  0.44165668  1
  N  N60  1  0.58281670  0.41587497  0.43859405  1
  N  N61  1  0.45842029  0.04157964  0.43915753  1
  N  N62  1  0.95813338  0.54186660  0.43916073  1
  N  N63  1  0.83335340  0.16714071  0.43894399  1
