# generated using pymatgen
data_Al16V32C15
_symmetry_space_group_name_H-M   'P 1'
_cell_length_a   5.78859834
_cell_length_b   5.78859834
_cell_length_c   26.33728903
_cell_angle_alpha   90.00000000
_cell_angle_beta   90.00000000
_cell_angle_gamma   120.00000002
_symmetry_Int_Tables_number   1
_chemical_formula_structural   Al16V32C15
_chemical_formula_sum   'Al16 V32 C15'
_cell_volume   764.27302694
_cell_formula_units_Z   1
loop_
 _symmetry_equiv_pos_site_id
 _symmetry_equiv_pos_as_xyz
  1  'x, y, z'
loop_
 _atom_site_type_symbol
 _atom_site_label
 _atom_site_symmetry_multiplicity
 _atom_site_fract_x
 _atom_site_fract_y
 _atom_site_fract_z
 _atom_site_occupancy
  Al  Al0  1  0.33322681  0.16661385  0.12483890  1
  Al  Al1  1  0.16661385  0.33322681  0.37516110  1
  Al  Al2  1  0.33335307  0.16667951  0.62510484  1
  Al  Al3  1  0.16667951  0.33335307  0.87489516  1
  Al  Al4  1  0.33333365  0.66666636  0.12544255  1
  Al  Al5  1  0.16661325  0.83338676  0.37516120  1
  Al  Al6  1  0.33333533  0.66666468  0.62509417  1
  Al  Al7  1  0.16667553  0.83332448  0.87489311  1
  Al  Al8  1  0.83338676  0.16661325  0.12483880  1
  Al  Al9  1  0.66666636  0.33333365  0.37455745  1
  Al  Al10  1  0.83332448  0.16667553  0.62510689  1
  Al  Al11  1  0.66666468  0.33333533  0.87490583  1
  Al  Al12  1  0.83338616  0.66677320  0.12483890  1
  Al  Al13  1  0.66677320  0.83338616  0.37516110  1
  Al  Al14  1  0.83332050  0.66664694  0.62510484  1
  Al  Al15  1  0.66664694  0.83332050  0.87489516  1
  V  V16  1  0.33357837  0.16678825  0.45733582  1
  V  V17  1  0.16678825  0.33357837  0.04266418  1
  V  V18  1  0.16631523  0.33262892  0.20697790  1
  V  V19  1  0.33262892  0.16631523  0.29302210  1
  V  V20  1  0.33318343  0.16659197  0.95710528  1
  V  V21  1  0.16659197  0.33318343  0.54289472  1
  V  V22  1  0.16666173  0.33332230  0.70730208  1
  V  V23  1  0.33332230  0.16666173  0.79269792  1
  V  V24  1  0.33333271  0.66666730  0.45758167  1
  V  V25  1  0.16678953  0.83321048  0.04266462  1
  V  V26  1  0.16631398  0.83368603  0.20697777  1
  V  V27  1  0.33333374  0.66666627  0.29205342  1
  V  V28  1  0.33333350  0.66666651  0.95715026  1
  V  V29  1  0.16659167  0.83340834  0.54289540  1
  V  V30  1  0.16666097  0.83333904  0.70730388  1
  V  V31  1  0.33333372  0.66666629  0.79270449  1
  V  V32  1  0.83321048  0.16678953  0.45733538  1
  V  V33  1  0.66666730  0.33333271  0.04241833  1
  V  V34  1  0.66666627  0.33333374  0.20794658  1
  V  V35  1  0.83368603  0.16631398  0.29302223  1
  V  V36  1  0.83340834  0.16659167  0.95710460  1
  V  V37  1  0.66666651  0.33333350  0.54284974  1
  V  V38  1  0.66666629  0.33333372  0.70729551  1
  V  V39  1  0.83333904  0.16666097  0.79269612  1
  V  V40  1  0.83321176  0.66642164  0.45733582  1
  V  V41  1  0.66642164  0.83321176  0.04266418  1
  V  V42  1  0.66737109  0.83368478  0.20697790  1
  V  V43  1  0.83368478  0.66737109  0.29302210  1
  V  V44  1  0.83340804  0.66681658  0.95710528  1
  V  V45  1  0.66681658  0.83340804  0.54289472  1
  V  V46  1  0.66667771  0.83333828  0.70730208  1
  V  V47  1  0.83333828  0.66667771  0.79269792  1
  C  C48  1  -0.00000182  0.00000182  0.99994881  1
  C  C49  1  0.00000182  -0.00000182  0.50005119  1
  C  C50  1  -0.00000000  -0.00000000  0.75000000  1
  C  C51  1  0.99998363  0.49998908  0.99983582  1
  C  C52  1  -0.00000000  0.50000000  0.25000000  1
  C  C53  1  0.00001637  0.50001092  0.50016418  1
  C  C54  1  -0.00000000  0.50000000  0.75000000  1
  C  C55  1  0.50001092  0.00001637  0.99983582  1
  C  C56  1  0.50000000  -0.00000000  0.25000000  1
  C  C57  1  0.49998908  0.99998363  0.50016418  1
  C  C58  1  0.50000000  -0.00000000  0.75000000  1
  C  C59  1  0.50000727  0.49999273  0.99983638  1
  C  C60  1  0.50000000  0.50000000  0.25000000  1
  C  C61  1  0.49999273  0.50000727  0.50016362  1
  C  C62  1  0.50000000  0.50000000  0.75000000  1
