# generated using pymatgen
data_Al7OsN8
_symmetry_space_group_name_H-M   'P 1'
_cell_length_a   6.29619607
_cell_length_b   6.34210778
_cell_length_c   10.08703174
_cell_angle_alpha   89.71829900
_cell_angle_beta   89.99970049
_cell_angle_gamma   119.76085683
_symmetry_Int_Tables_number   1
_chemical_formula_structural   Al7OsN8
_chemical_formula_sum   'Al14 Os2 N16'
_cell_volume   349.65554554
_cell_formula_units_Z   2
loop_
 _symmetry_equiv_pos_site_id
 _symmetry_equiv_pos_as_xyz
  1  'x, y, z'
loop_
 _atom_site_type_symbol
 _atom_site_label
 _atom_site_symmetry_multiplicity
 _atom_site_fract_x
 _atom_site_fract_y
 _atom_site_fract_z
 _atom_site_occupancy
  Al  Al0  1  0.18771537  0.34575761  0.25896454  1
  Al  Al1  1  0.32983726  0.15966910  0.00245456  1
  Al  Al2  1  0.16473377  0.32931876  0.74749169  1
  Al  Al3  1  0.33076072  0.16153071  0.50373329  1
  Al  Al4  1  0.16733342  0.83467145  0.25477487  1
  Al  Al5  1  0.32629812  0.66020843  0.00380891  1
  Al  Al6  1  0.16424886  0.82850829  0.75102735  1
  Al  Al7  1  0.33297560  0.66505773  0.49991801  1
  Al  Al8  1  0.65805707  0.34574985  0.25896287  1
  Al  Al9  1  0.66458583  0.32931826  0.74748828  1
  Al  Al10  1  0.82909078  0.15818584  0.49746209  1
  Al  Al11  1  0.83390376  0.66020788  0.00381018  1
  Al  Al12  1  0.66219716  0.82440209  0.74346704  1
  Al  Al13  1  0.83206673  0.66505719  0.49991806  1
  Os  Os14  1  0.81781304  0.13561288  0.00032626  1
  Os  Os15  1  0.70139866  0.90278538  0.22161435  1
  N  N16  1  0.16749880  0.33181092  0.44567079  1
  N  N17  1  0.33354871  0.16708616  0.19327905  1
  N  N18  1  0.17485634  0.33532227  0.93856461  1
  N  N19  1  0.33018589  0.16037417  0.69259091  1
  N  N20  1  0.16641854  0.83285379  0.44321016  1
  N  N21  1  0.32696204  0.66269713  0.19321469  1
  N  N22  1  0.16536634  0.83073897  0.94251094  1
  N  N23  1  0.32801092  0.66127435  0.69022143  1
  N  N24  1  0.66430655  0.33180963  0.44567020  1
  N  N25  1  0.87085920  0.24169523  0.18603778  1
  N  N26  1  0.66047524  0.33531826  0.93856411  1
  N  N27  1  0.83030243  0.16060163  0.69112512  1
  N  N28  1  0.66372855  0.82746964  0.44459087  1
  N  N29  1  0.83573804  0.66268787  0.19321208  1
  N  N30  1  0.64546982  0.79094329  0.93209579  1
  N  N31  1  0.83325645  0.66127525  0.69021922  1
