# generated using pymatgen
data_Ti7SiN8
_symmetry_space_group_name_H-M   'P 1'
_cell_length_a   6.92596577
_cell_length_b   6.92451732
_cell_length_c   8.47897610
_cell_angle_alpha   89.73912677
_cell_angle_beta   90.00000000
_cell_angle_gamma   120.00691979
_symmetry_Int_Tables_number   1
_chemical_formula_structural   Ti7SiN8
_chemical_formula_sum   'Ti14 Si2 N16'
_cell_volume   352.13370794
_cell_formula_units_Z   2
loop_
 _symmetry_equiv_pos_site_id
 _symmetry_equiv_pos_as_xyz
  1  'x, y, z'
loop_
 _atom_site_type_symbol
 _atom_site_label
 _atom_site_symmetry_multiplicity
 _atom_site_fract_x
 _atom_site_fract_y
 _atom_site_fract_z
 _atom_site_occupancy
  Ti  Ti0  1  0.16382185  0.32764368  0.21750476  1
  Ti  Ti1  1  0.33612566  0.16082978  0.96691928  1
  Ti  Ti2  1  0.16620030  0.33240058  0.72196987  1
  Ti  Ti3  1  0.33036082  0.16597936  0.47383481  1
  Ti  Ti4  1  0.16999788  0.84179772  0.22316321  1
  Ti  Ti5  1  0.33648022  0.67296045  0.97275008  1
  Ti  Ti6  1  0.16451436  0.83198342  0.71778611  1
  Ti  Ti7  1  0.33334768  0.66669539  0.46890248  1
  Ti  Ti8  1  0.82470409  0.16082978  0.96691928  1
  Ti  Ti9  1  0.66665787  0.33331575  0.71477427  1
  Ti  Ti10  1  0.83561853  0.16597936  0.47383481  1
  Ti  Ti11  1  0.67179984  0.84179772  0.22316321  1
  Ti  Ti12  1  0.66746907  0.83198342  0.71778611  1
  Ti  Ti13  1  0.83691882  0.67383766  0.47189292  1
  Si  Si14  1  0.66772376  0.33544752  0.23809237  1
  Si  Si15  1  0.82926800  0.65853602  0.98419482  1
  N  N16  1  0.16635062  0.33270125  0.47000895  1
  N  N17  1  0.37503012  0.18832411  0.21880071  1
  N  N18  1  0.16575966  0.33151933  0.97029396  1
  N  N19  1  0.33723501  0.16721351  0.72021062  1
  N  N20  1  0.16499340  0.83301166  0.47030464  1
  N  N21  1  0.33381761  0.66763525  0.22023120  1
  N  N22  1  0.12424040  0.81203073  0.97167104  1
  N  N23  1  0.33368906  0.66737813  0.72130668  1
  N  N24  1  0.67000511  0.34001022  0.45833212  1
  N  N25  1  0.81329398  0.18832411  0.21880071  1
  N  N26  1  0.68278367  0.36556734  0.96716292  1
  N  N27  1  0.82997850  0.16721351  0.72021062  1
  N  N28  1  0.66801829  0.83301166  0.47030464  1
  N  N29  1  0.81504143  0.63008286  0.21038835  1
  N  N30  1  0.68779033  0.81203073  0.97167104  1
  N  N31  1  0.83096400  0.66192797  0.72281348  1
