# generated using pymatgen
data_Al7OsN8
_symmetry_space_group_name_H-M   'P 1'
_cell_length_a   6.29619607
_cell_length_b   6.34210778
_cell_length_c   10.08703174
_cell_angle_alpha   89.71829900
_cell_angle_beta   89.99970049
_cell_angle_gamma   119.76085683
_symmetry_Int_Tables_number   1
_chemical_formula_structural   Al7OsN8
_chemical_formula_sum   'Al14 Os2 N16'
_cell_volume   349.65554554
_cell_formula_units_Z   2
loop_
 _symmetry_equiv_pos_site_id
 _symmetry_equiv_pos_as_xyz
  1  'x, y, z'
loop_
 _atom_site_type_symbol
 _atom_site_label
 _atom_site_symmetry_multiplicity
 _atom_site_fract_x
 _atom_site_fract_y
 _atom_site_fract_z
 _atom_site_occupancy
  Al  Al0  1  0.18769877  0.34576016  0.25895576  1
  Al  Al1  1  0.32983346  0.15965920  0.00245293  1
  Al  Al2  1  0.16473848  0.32933934  0.74748578  1
  Al  Al3  1  0.33076231  0.16153358  0.50373577  1
  Al  Al4  1  0.16734149  0.83468595  0.25477504  1
  Al  Al5  1  0.32628002  0.66019180  0.00381745  1
  Al  Al6  1  0.16426103  0.82853233  0.75102641  1
  Al  Al7  1  0.33296776  0.66505397  0.49992309  1
  Al  Al8  1  0.65807621  0.34575083  0.25895405  1
  Al  Al9  1  0.66460228  0.32933836  0.74748283  1
  Al  Al10  1  0.82909152  0.15818820  0.49745779  1
  Al  Al11  1  0.83390436  0.66019094  0.00381769  1
  Al  Al12  1  0.66219975  0.82440718  0.74348129  1
  Al  Al13  1  0.83206894  0.66505317  0.49992229  1
  Os  Os14  1  0.81779081  0.13556743  0.00030633  1
  Os  Os15  1  0.70139849  0.90278506  0.22163160  1
  N  N16  1  0.16749506  0.33180961  0.44567546  1
  N  N17  1  0.33355660  0.16710044  0.19327536  1
  N  N18  1  0.17486889  0.33534071  0.93855215  1
  N  N19  1  0.33020149  0.16040400  0.69259111  1
  N  N20  1  0.16641747  0.83285211  0.44321558  1
  N  N21  1  0.32693422  0.66269503  0.19321269  1
  N  N22  1  0.16536120  0.83072868  0.94250823  1
  N  N23  1  0.32802250  0.66129732  0.69022434  1
  N  N24  1  0.66430812  0.33180784  0.44567481  1
  N  N25  1  0.87082248  0.24161956  0.18602529  1
  N  N26  1  0.66048126  0.33533647  0.93855064  1
  N  N27  1  0.83029990  0.16059609  0.69112946  1
  N  N28  1  0.66372242  0.82745980  0.44459903  1
  N  N29  1  0.83576296  0.66268509  0.19321058  1
  N  N30  1  0.64546318  0.79093252  0.93210663  1
  N  N31  1  0.83326657  0.66129725  0.69022257  1
