# generated using pymatgen
data_ZrTiC2
_symmetry_space_group_name_H-M   'P 1'
_cell_length_a   5.55646620
_cell_length_b   6.42182185
_cell_length_c   11.56572541
_cell_angle_alpha   73.88993049
_cell_angle_beta   76.09590932
_cell_angle_gamma   73.24937594
_symmetry_Int_Tables_number   1
_chemical_formula_structural   ZrTiC2
_chemical_formula_sum   'Zr8 Ti8 C16'
_cell_volume   373.85558466
_cell_formula_units_Z   8
loop_
 _symmetry_equiv_pos_site_id
 _symmetry_equiv_pos_as_xyz
  1  'x, y, z'
loop_
 _atom_site_type_symbol
 _atom_site_label
 _atom_site_symmetry_multiplicity
 _atom_site_fract_x
 _atom_site_fract_y
 _atom_site_fract_z
 _atom_site_occupancy
  C  C0  1  0.75026571  0.71654252  0.67850416  1
  C  C1  1  0.24401098  0.52927232  0.80715812  1
  C  C2  1  0.74391931  0.60125339  0.43773869  1
  C  C3  1  0.24942043  0.76960021  0.32205544  1
  C  C4  1  0.74355995  0.22862627  0.68278662  1
  C  C5  1  0.25561310  0.41139436  0.56207864  1
  C  C6  1  0.24919577  0.04156194  0.80335414  1
  C  C7  1  0.75568839  0.47076615  0.19317822  1
  C  C8  1  0.23925019  0.65088810  0.06591411  1
  C  C9  1  0.73851449  0.08814909  0.44253953  1
  C  C10  1  0.25632594  0.28559335  0.31656658  1
  C  C11  1  0.26190317  0.90005248  0.55775180  1
  C  C12  1  0.76146259  0.34948470  0.93334426  1
  C  C13  1  0.75112722  0.95775238  0.19638267  1
  C  C14  1  0.24483223  0.16364848  0.06292306  1
  C  C15  1  0.75462414  0.83555861  0.93772916  1
  Ti  Ti16  1  0.50009588  0.06456060  0.62060633  1
  Ti  Ti17  1  0.00053999  0.74666037  0.50020566  1
  Ti  Ti18  1  0.50212721  0.93195993  0.38003147  1
  Ti  Ti19  1  0.50143963  0.56462898  0.62016216  1
  Ti  Ti20  1  0.99605040  0.62351841  0.25515734  1
  Ti  Ti21  1  0.49648445  0.43937026  0.37925852  1
  Ti  Ti22  1  0.00005980  0.50023974  -0.00000190  1
  Ti  Ti23  1  0.00369604  0.37910169  0.74465371  1
  Zr  Zr24  1  0.99986064  0.25369512  0.49987309  1
  Zr  Zr25  1  0.99934585  0.12213149  0.25620213  1
  Zr  Zr26  1  0.50178944  0.31290138  0.12833503  1
  Zr  Zr27  1  0.99995393  0.99962881  0.99992531  1
  Zr  Zr28  1  0.49997402  0.19134255  0.87109206  1
  Zr  Zr29  1  0.49833764  0.80805057  0.13000137  1
  Zr  Zr30  1  0.00072230  0.87477376  0.74401044  1
  Zr  Zr31  1  0.49980917  0.68729204  0.87048202  1
