# generated using pymatgen
data_HfTiC2
_symmetry_space_group_name_H-M   'P 1'
_cell_length_a   11.02278406
_cell_length_b   11.02079645
_cell_length_c   5.51429447
_cell_angle_alpha   99.60291198
_cell_angle_beta   99.61111715
_cell_angle_gamma   33.62832155
_symmetry_Int_Tables_number   1
_chemical_formula_structural   HfTiC2
_chemical_formula_sum   'Hf8 Ti8 C16'
_cell_volume   365.29775147
_cell_formula_units_Z   8
loop_
 _symmetry_equiv_pos_site_id
 _symmetry_equiv_pos_as_xyz
  1  'x, y, z'
loop_
 _atom_site_type_symbol
 _atom_site_label
 _atom_site_symmetry_multiplicity
 _atom_site_fract_x
 _atom_site_fract_y
 _atom_site_fract_z
 _atom_site_occupancy
  C  C0  1  0.18329133  0.19408688  0.12200421  1
  C  C1  1  0.68778587  0.18744905  0.12493498  1
  C  C2  1  0.30413679  0.31346610  0.86866224  1
  C  C3  1  0.42814011  0.44661882  0.62514180  1
  C  C4  1  0.81724610  0.31760366  0.87897596  1
  C  C5  1  0.18740167  0.68757748  0.12409430  1
  C  C6  1  0.56478903  0.56534795  0.38283512  1
  C  C7  1  0.94218730  0.43072097  0.62791824  1
  C  C8  1  0.69260672  0.68210661  0.11530987  1
  C  C9  1  0.06469262  0.55499446  0.37764097  1
  C  C10  1  0.31526668  0.81471951  0.86444519  1
  C  C11  1  0.43229874  0.94262324  0.63454814  1
  C  C12  1  0.81474718  0.80534607  0.87562790  1
  C  C13  1  0.55430312  0.06305004  0.36980632  1
  C  C14  1  0.94661502  0.92843425  0.62572797  1
  C  C15  1  0.06484595  0.06555249  0.38272599  1
  Hf  Hf16  1  0.75074719  0.74551635  0.50056865  1
  Hf  Hf17  1  0.87636780  0.87047511  0.24924202  1
  Hf  Hf18  1  0.00352529  0.00004620  0.00041337  1
  Hf  Hf19  1  0.37523835  0.87806915  0.25063475  1
  Hf  Hf20  1  0.75177619  0.25202583  0.50340333  1
  Hf  Hf21  1  0.62214623  0.12423930  0.74828845  1
  Hf  Hf22  1  0.37065136  0.37562142  0.24788880  1
  Hf  Hf23  1  0.49983756  0.50352957  0.00061641  1
  Ti  Ti24  1  0.25125437  0.75114776  0.50252563  1
  Ti  Ti25  1  0.12589096  0.12799851  0.75068971  1
  Ti  Ti26  1  0.49555267  0.00097913  0.99714294  1
  Ti  Ti27  1  0.24616671  0.25116901  0.50113286  1
  Ti  Ti28  1  0.87838145  0.37536286  0.25015182  1
  Ti  Ti29  1  0.00029665  0.49605738  0.99658366  1
  Ti  Ti30  1  0.12446592  0.62295492  0.74918919  1
  Ti  Ti31  1  0.62734703  0.62510994  0.75112927  1
