# generated using pymatgen
data_HfTiC2
_symmetry_space_group_name_H-M   'P 1'
_cell_length_a   11.02278406
_cell_length_b   11.02079645
_cell_length_c   5.51429447
_cell_angle_alpha   99.60291198
_cell_angle_beta   99.61111715
_cell_angle_gamma   33.62832155
_symmetry_Int_Tables_number   1
_chemical_formula_structural   HfTiC2
_chemical_formula_sum   'Hf8 Ti8 C16'
_cell_volume   365.29775147
_cell_formula_units_Z   8
loop_
 _symmetry_equiv_pos_site_id
 _symmetry_equiv_pos_as_xyz
  1  'x, y, z'
loop_
 _atom_site_type_symbol
 _atom_site_label
 _atom_site_symmetry_multiplicity
 _atom_site_fract_x
 _atom_site_fract_y
 _atom_site_fract_z
 _atom_site_occupancy
  C  C0  1  0.18329129  0.19408694  0.12200417  1
  C  C1  1  0.68778589  0.18744906  0.12493484  1
  C  C2  1  0.30413679  0.31346602  0.86866217  1
  C  C3  1  0.42814034  0.44661855  0.62514192  1
  C  C4  1  0.81724607  0.31760382  0.87897613  1
  C  C5  1  0.18740164  0.68757747  0.12409419  1
  C  C6  1  0.56478921  0.56534787  0.38283498  1
  C  C7  1  0.94218733  0.43072097  0.62791828  1
  C  C8  1  0.69260673  0.68210656  0.11530974  1
  C  C9  1  0.06469246  0.55499446  0.37764094  1
  C  C10  1  0.31526690  0.81471945  0.86444550  1
  C  C11  1  0.43229877  0.94262322  0.63454809  1
  C  C12  1  0.81474713  0.80534609  0.87562793  1
  C  C13  1  0.55430314  0.06304997  0.36980635  1
  C  C14  1  0.94661471  0.92843448  0.62572806  1
  C  C15  1  0.06484587  0.06555266  0.38272583  1
  Hf  Hf16  1  0.75074743  0.74551609  0.50056870  1
  Hf  Hf17  1  0.87636798  0.87047466  0.24924202  1
  Hf  Hf18  1  0.00352545  0.00004626  0.00041343  1
  Hf  Hf19  1  0.37523826  0.87806925  0.25063446  1
  Hf  Hf20  1  0.75177630  0.25202599  0.50340352  1
  Hf  Hf21  1  0.62214606  0.12423933  0.74828807  1
  Hf  Hf22  1  0.37065084  0.37562167  0.24788882  1
  Hf  Hf23  1  0.49983756  0.50352979  0.00061623  1
  Ti  Ti24  1  0.25125441  0.75114789  0.50252630  1
  Ti  Ti25  1  0.12589072  0.12799894  0.75068959  1
  Ti  Ti26  1  0.49555228  0.00097924  0.99714291  1
  Ti  Ti27  1  0.24616661  0.25116904  0.50113297  1
  Ti  Ti28  1  0.87838173  0.37536279  0.25015174  1
  Ti  Ti29  1  0.00029680  0.49605696  0.99658335  1
  Ti  Ti30  1  0.12446593  0.62295496  0.74918916  1
  Ti  Ti31  1  0.62734736  0.62510955  0.75112968  1
