# generated using pymatgen
data_Al31CrN32
_symmetry_space_group_name_H-M   'P 1'
_cell_length_a   11.29736278
_cell_length_b   11.29736234
_cell_length_c   10.02365991
_cell_angle_alpha   89.97520860
_cell_angle_beta   90.02479138
_cell_angle_gamma   147.77292818
_symmetry_Int_Tables_number   1
_chemical_formula_structural   Al31CrN32
_chemical_formula_sum   'Al31 Cr1 N32'
_cell_volume   682.23261955
_cell_formula_units_Z   1
loop_
 _symmetry_equiv_pos_site_id
 _symmetry_equiv_pos_as_xyz
  1  'x, y, z'
loop_
 _atom_site_type_symbol
 _atom_site_label
 _atom_site_symmetry_multiplicity
 _atom_site_fract_x
 _atom_site_fract_y
 _atom_site_fract_z
 _atom_site_occupancy
  Al  Al0  1  0.54161721  0.95823614  0.99865390  1
  Al  Al1  1  0.41646035  0.58306889  0.99836194  1
  Al  Al2  1  0.29155095  0.20817833  0.99872742  1
  Al  Al3  1  0.91638022  0.08349619  0.99786015  1
  Al  Al4  1  0.79082771  0.70746714  0.99779421  1
  Al  Al5  1  0.66661227  0.33304388  0.99842030  1
  Al  Al6  1  0.16675299  0.83336433  0.99847637  1
  Al  Al7  1  0.04162356  0.45867935  0.99869267  1
  Al  Al8  1  0.54175286  0.95827123  0.49849928  1
  Al  Al9  1  0.41528382  0.58205500  0.49707109  1
  Al  Al10  1  0.29143566  0.20796104  0.49817483  1
  Al  Al11  1  0.91825849  0.08549469  0.49760453  1
  Al  Al12  1  0.79172233  0.70719196  0.49709410  1
  Al  Al13  1  0.66643430  0.33298874  0.49830437  1
  Al  Al14  1  0.16688469  0.83341270  0.49823053  1
  Al  Al15  1  0.04142680  0.45845123  0.49845166  1
  Al  Al16  1  0.33207989  0.66681479  0.74911584  1
  Al  Al17  1  0.20933686  0.29197034  0.75013148  1
  Al  Al18  1  0.08510267  0.91724834  0.74900386  1
  Al  Al19  1  0.58179388  0.41426935  0.74893997  1
  Al  Al20  1  0.45861908  0.04142859  0.74839605  1
  Al  Al21  1  0.95784954  0.54199579  0.74836112  1
  Al  Al22  1  0.83448621  0.16899904  0.74927351  1
  Al  Al23  1  0.33316222  0.66673992  0.24831320  1
  Al  Al24  1  0.20841952  0.29157534  0.24772489  1
  Al  Al25  1  0.08357984  0.91677093  0.24803268  1
  Al  Al26  1  0.70866664  0.79207268  0.24834798  1
  Al  Al27  1  0.58313055  0.41631413  0.24793798  1
  Al  Al28  1  0.45836598  0.04162568  0.24839216  1
  Al  Al29  1  0.95826174  0.54175636  0.24837413  1
  Al  Al30  1  0.83329648  0.16688251  0.24820342  1
  Cr  Cr31  1  0.70795527  0.79111145  0.74309895  1
  N  N32  1  0.54159918  0.95825006  0.18941943  1
  N  N33  1  0.41692962  0.58369218  0.18974713  1
  N  N34  1  0.29168559  0.20819021  0.18921568  1
  N  N35  1  0.91672290  0.08357749  0.18962198  1
  N  N36  1  0.79168103  0.70837770  0.18946694  1
  N  N37  1  0.66668331  0.33317543  0.18924259  1
  N  N38  1  0.16681656  0.83336851  0.18928797  1
  N  N39  1  0.04168458  0.45853734  0.18945216  1
  N  N40  1  0.54227950  0.95859796  0.68949296  1
  N  N41  1  0.40987988  0.57847651  0.68790873  1
  N  N42  1  0.29107637  0.20763798  0.68933144  1
  N  N43  1  0.92374947  0.09345705  0.68815866  1
  N  N44  1  0.79334104  0.70439413  0.68759223  1
  N  N45  1  0.66592354  0.33201078  0.68924318  1
  N  N46  1  0.16770506  0.83383740  0.68919138  1
  N  N47  1  0.04148002  0.45964043  0.68924984  1
  N  N48  1  0.33295413  0.66650284  0.93974905  1
  N  N49  1  0.20815817  0.29149595  0.94023126  1
  N  N50  1  0.08328430  0.91659771  0.93960413  1
  N  N51  1  0.70828420  0.79197081  0.94113413  1
  N  N52  1  0.58280708  0.41581575  0.93956367  1
  N  N53  1  0.45821175  0.04145197  0.93937610  1
  N  N54  1  0.95824948  0.54188115  0.93933342  1
  N  N55  1  0.83342358  0.16737119  0.93984707  1
  N  N56  1  0.33300130  0.66656034  0.43920970  1
  N  N57  1  0.20867917  0.29149859  0.43831848  1
  N  N58  1  0.08368227  0.91679349  0.43885900  1
  N  N59  1  0.70875348  0.79205753  0.44096494  1
  N  N60  1  0.58248911  0.41560049  0.43864058  1
  N  N61  1  0.45834151  0.04149092  0.43926778  1
  N  N62  1  0.95813271  0.54176483  0.43922871  1
  N  N63  1  0.83317948  0.16698920  0.43898509  1
