# generated using pymatgen
data_NbAl7N8
_symmetry_space_group_name_H-M   'P 1'
_cell_length_a   5.84765153
_cell_length_b   5.84765153
_cell_length_c   8.28472760
_cell_angle_alpha   89.51179857
_cell_angle_beta   90.48820143
_cell_angle_gamma   89.90058536
_symmetry_Int_Tables_number   1
_chemical_formula_structural   NbAl7N8
_chemical_formula_sum   'Nb2 Al14 N16'
_cell_volume   283.27546519
_cell_formula_units_Z   2
loop_
 _symmetry_equiv_pos_site_id
 _symmetry_equiv_pos_as_xyz
  1  'x, y, z'
loop_
 _atom_site_type_symbol
 _atom_site_label
 _atom_site_symmetry_multiplicity
 _atom_site_fract_x
 _atom_site_fract_y
 _atom_site_fract_z
 _atom_site_occupancy
  Nb  Nb0  1  0.48393192  0.51606808  0.48528425  1
  Nb  Nb1  1  0.26606808  0.73393192  0.26471575  1
  N  N2  1  0.75747229  0.76066554  0.49975484  1
  N  N3  1  0.75547252  0.24452748  0.50326715  1
  N  N4  1  0.23074364  0.76925636  0.52121767  1
  N  N5  1  0.23933446  0.24252771  0.49975484  1
  N  N6  1  0.51925636  0.48074364  0.22878233  1
  N  N7  1  0.51066554  0.00747229  0.25024516  1
  N  N8  1  0.75252019  0.75089106  0.99940039  1
  N  N9  1  0.75323056  0.24676944  0.99582053  1
  N  N10  1  0.99252771  0.48933446  0.25024516  1
  N  N11  1  0.99452748  0.00547252  0.24673285  1
  N  N12  1  0.25056470  0.74943530  0.99241290  1
  N  N13  1  0.24910894  0.24747981  0.99940039  1
  N  N14  1  0.49943530  0.50056470  0.75758710  1
  N  N15  1  0.50089106  0.00252019  0.75059961  1
  N  N16  1  0.99747981  0.49910894  0.75059961  1
  N  N17  1  0.99676944  0.00323056  0.75417947  1
  Al  Al18  1  0.74929856  0.25070144  0.75253766  1
  Al  Al19  1  0.75102361  0.75200396  0.75333261  1
  Al  Al20  1  0.24799604  0.24897639  0.75333261  1
  Al  Al21  1  0.24732650  0.75267350  0.75512441  1
  Al  Al22  1  0.50454407  0.00853441  0.50522934  1
  Al  Al23  1  0.75473244  0.24526756  0.24550729  1
  Al  Al24  1  0.75853441  0.75454407  0.24477066  1
  Al  Al25  1  0.99526756  0.00473244  0.50449271  1
  Al  Al26  1  0.99146559  0.49545593  0.50522934  1
  Al  Al27  1  0.24545593  0.24146559  0.24477066  1
  Al  Al28  1  0.50200396  0.00102361  0.99666739  1
  Al  Al29  1  0.50267350  0.49732650  0.99487559  1
  Al  Al30  1  0.00070144  0.99929856  0.99746234  1
  Al  Al31  1  0.99897639  0.49799604  0.99666739  1
