# generated using pymatgen
data_Al7ReN8
_symmetry_space_group_name_H-M   'P 1'
_cell_length_a   6.33297740
_cell_length_b   6.33297608
_cell_length_c   10.20938092
_cell_angle_alpha   89.96986714
_cell_angle_beta   90.03013335
_cell_angle_gamma   121.67016412
_symmetry_Int_Tables_number   1
_chemical_formula_structural   Al7ReN8
_chemical_formula_sum   'Al14 Re2 N16'
_cell_volume   348.48802566
_cell_formula_units_Z   2
loop_
 _symmetry_equiv_pos_site_id
 _symmetry_equiv_pos_as_xyz
  1  'x, y, z'
loop_
 _atom_site_type_symbol
 _atom_site_label
 _atom_site_symmetry_multiplicity
 _atom_site_fract_x
 _atom_site_fract_y
 _atom_site_fract_z
 _atom_site_occupancy
  Al  Al0  1  0.16043644  0.33423782  0.25487585  1
  Al  Al1  1  0.16681162  0.33255340  0.74564985  1
  Al  Al2  1  0.33268736  0.16882044  0.49941362  1
  Al  Al3  1  0.16624312  0.83370570  0.25414866  1
  Al  Al4  1  0.34430320  0.65587597  0.00492742  1
  Al  Al5  1  0.17180814  0.82808364  0.73336776  1
  Al  Al6  1  0.33425830  0.66567374  0.49783299  1
  Al  Al7  1  0.66619598  0.33382571  0.25497967  1
  Al  Al8  1  0.82854470  0.17159932  0.00399396  1
  Al  Al9  1  0.66681643  0.33304509  0.75369490  1
  Al  Al10  1  0.83119669  0.16870694  0.50208374  1
  Al  Al11  1  0.66583461  0.83943804  0.25487551  1
  Al  Al12  1  0.66724390  0.83303936  0.74572415  1
  Al  Al13  1  0.83111410  0.66723949  0.49947208  1
  Re  Re14  1  0.27617959  0.11768577  0.00679985  1
  Re  Re15  1  0.88269408  0.72400473  0.00667739  1
  N  N16  1  0.16488198  0.33123227  0.44137895  1
  N  N17  1  0.33053610  0.17280228  0.20483934  1
  N  N18  1  0.16075171  0.33633344  0.93527337  1
  N  N19  1  0.33235804  0.16829693  0.68757130  1
  N  N20  1  0.16878763  0.83112577  0.44297852  1
  N  N21  1  0.33157117  0.66845765  0.19253988  1
  N  N22  1  0.19615485  0.80450667  0.91658067  1
  N  N23  1  0.33639577  0.66340623  0.68267985  1
  N  N24  1  0.66732807  0.33260785  0.44232114  1
  N  N25  1  0.82769101  0.17222963  0.19378924  1
  N  N26  1  0.66839840  0.33163168  0.93935237  1
  N  N27  1  0.83137781  0.16847574  0.68911393  1
  N  N28  1  0.66872229  0.83502502  0.44137380  1
  N  N29  1  0.82721791  0.66939814  0.20478887  1
  N  N30  1  0.66388874  0.83940077  0.93527577  1
  N  N31  1  0.83157024  0.66753475  0.68762565  1
