# generated using pymatgen
data_Ti3MoC4
_symmetry_space_group_name_H-M   'P 1'
_cell_length_a   6.86687826
_cell_length_b   6.85678075
_cell_length_c   8.10731485
_cell_angle_alpha   75.23250195
_cell_angle_beta   64.91433674
_cell_angle_gamma   72.54185513
_symmetry_Int_Tables_number   1
_chemical_formula_structural   Ti3MoC4
_chemical_formula_sum   'Ti12 Mo4 C16'
_cell_volume   326.17569409
_cell_formula_units_Z   4
loop_
 _symmetry_equiv_pos_site_id
 _symmetry_equiv_pos_as_xyz
  1  'x, y, z'
loop_
 _atom_site_type_symbol
 _atom_site_label
 _atom_site_symmetry_multiplicity
 _atom_site_fract_x
 _atom_site_fract_y
 _atom_site_fract_z
 _atom_site_occupancy
  C  C0  1  0.84476374  0.40533941  0.46904991  1
  C  C1  1  0.15673547  0.59344183  0.53146225  1
  C  C2  1  0.28115442  0.47159558  0.15676382  1
  C  C3  1  0.47007079  0.78133099  0.59335938  1
  C  C4  1  0.78058954  0.96827922  0.65633723  1
  C  C5  1  0.09223525  0.15724039  0.71943106  1
  C  C6  1  0.59526055  0.65514572  0.21918329  1
  C  C7  1  0.90633907  0.84517152  0.28072951  1
  C  C8  1  0.21959937  0.02941602  0.34483230  1
  C  C9  1  0.40704840  0.34349558  0.78076834  1
  C  C10  1  0.71795624  0.53104176  0.84424144  1
  C  C11  1  0.03177396  0.71899275  0.90579878  1
  C  C12  1  0.34266978  0.90735354  0.96889095  1
  C  C13  1  0.52971799  0.21785943  0.40667425  1
  C  C14  1  0.65739345  0.09144168  0.03026394  1
  C  C15  1  0.96731328  0.28288745  0.09230631  1
  Mo  Mo16  1  0.31599455  0.18617459  0.05835789  1
  Mo  Mo17  1  0.61331253  0.37513403  0.12465990  1
  Mo  Mo18  1  0.94434472  0.56926820  0.19091223  1
  Mo  Mo19  1  0.87938372  0.11762495  0.37126108  1
  Ti  Ti20  1  0.06165754  0.43776956  0.81460106  1
  Ti  Ti21  1  0.37394396  0.63003807  0.87484188  1
  Ti  Ti22  1  0.50071523  0.49752971  0.50212914  1
  Ti  Ti23  1  0.68859066  0.81471029  0.93649082  1
  Ti  Ti24  1  0.99813961  0.00229644  0.99644008  1
  Ti  Ti25  1  0.81154454  0.68467170  0.56623391  1
  Ti  Ti26  1  0.12504941  0.87311674  0.62571016  1
  Ti  Ti27  1  0.43804570  0.06327791  0.68518077  1
  Ti  Ti28  1  0.25215176  0.74970643  0.25147858  1
  Ti  Ti29  1  0.55801161  0.93561731  0.31512453  1
  Ti  Ti30  1  0.75115685  0.25134693  0.74660714  1
  Ti  Ti31  1  0.18733636  0.31168429  0.43987810  1
