# generated using pymatgen
data_Ti3MoC4
_symmetry_space_group_name_H-M   'P 1'
_cell_length_a   6.86636456
_cell_length_b   6.85479728
_cell_length_c   8.10696482
_cell_angle_alpha   75.25284543
_cell_angle_beta   64.91462716
_cell_angle_gamma   72.56900514
_symmetry_Int_Tables_number   1
_chemical_formula_structural   Ti3MoC4
_chemical_formula_sum   'Ti12 Mo4 C16'
_cell_volume   326.10186288
_cell_formula_units_Z   4
loop_
 _symmetry_equiv_pos_site_id
 _symmetry_equiv_pos_as_xyz
  1  'x, y, z'
loop_
 _atom_site_type_symbol
 _atom_site_label
 _atom_site_symmetry_multiplicity
 _atom_site_fract_x
 _atom_site_fract_y
 _atom_site_fract_z
 _atom_site_occupancy
  C  C0  1  0.84477109  0.40529408  0.46906757  1
  C  C1  1  0.15671583  0.59338596  0.53146982  1
  C  C2  1  0.28115286  0.47155339  0.15676175  1
  C  C3  1  0.47008420  0.78131475  0.59337250  1
  C  C4  1  0.78059276  0.96835090  0.65632845  1
  C  C5  1  0.09225224  0.15726376  0.71943485  1
  C  C6  1  0.59522158  0.65514725  0.21920030  1
  C  C7  1  0.90634340  0.84522721  0.28070603  1
  C  C8  1  0.21949894  0.02952376  0.34487878  1
  C  C9  1  0.40705063  0.34354095  0.78075374  1
  C  C10  1  0.71797607  0.53104198  0.84420761  1
  C  C11  1  0.03185265  0.71896355  0.90577928  1
  C  C12  1  0.34266196  0.90738438  0.96887702  1
  C  C13  1  0.52971978  0.21793953  0.40668080  1
  C  C14  1  0.65737319  0.09142061  0.03029405  1
  C  C15  1  0.96739701  0.28277388  0.09220134  1
  Mo  Mo16  1  0.31591907  0.18624768  0.05831862  1
  Mo  Mo17  1  0.61305394  0.37533197  0.12478326  1
  Mo  Mo18  1  0.94458457  0.56919978  0.19091006  1
  Mo  Mo19  1  0.87947808  0.11746618  0.37118035  1
  Ti  Ti20  1  0.06158402  0.43782042  0.81456569  1
  Ti  Ti21  1  0.37404258  0.62996803  0.87482209  1
  Ti  Ti22  1  0.50060552  0.49765510  0.50218848  1
  Ti  Ti23  1  0.68867076  0.81458390  0.93642484  1
  Ti  Ti24  1  0.99813838  0.00224820  0.99645014  1
  Ti  Ti25  1  0.81163394  0.68471857  0.56622196  1
  Ti  Ti26  1  0.12501712  0.87324368  0.62582073  1
  Ti  Ti27  1  0.43805506  0.06329987  0.68525295  1
  Ti  Ti28  1  0.25202867  0.74963738  0.25146544  1
  Ti  Ti29  1  0.55807538  0.93544761  0.31501094  1
  Ti  Ti30  1  0.75105760  0.25130887  0.74662438  1
  Ti  Ti31  1  0.18739113  0.31169680  0.43994622  1
