# generated using pymatgen
data_Al7CoN8
_symmetry_space_group_name_H-M   'P 1'
_cell_length_a   6.26536914
_cell_length_b   6.26536913
_cell_length_c   10.04499775
_cell_angle_alpha   89.52685041
_cell_angle_beta   90.47314975
_cell_angle_gamma   119.86951713
_symmetry_Int_Tables_number   1
_chemical_formula_structural   Al7CoN8
_chemical_formula_sum   'Al14 Co2 N16'
_cell_volume   341.91925225
_cell_formula_units_Z   2
loop_
 _symmetry_equiv_pos_site_id
 _symmetry_equiv_pos_as_xyz
  1  'x, y, z'
loop_
 _atom_site_type_symbol
 _atom_site_label
 _atom_site_symmetry_multiplicity
 _atom_site_fract_x
 _atom_site_fract_y
 _atom_site_fract_z
 _atom_site_occupancy
  Al  Al0  1  0.16439816  0.33560183  0.24943794  1
  Al  Al1  1  0.33400227  0.16599773  0.49781229  1
  Al  Al2  1  0.16540263  0.83312876  0.24919986  1
  Al  Al3  1  0.33638503  0.67495038  0.00153572  1
  Al  Al4  1  0.16679162  0.83044407  0.74984014  1
  Al  Al5  1  0.33378220  0.66449495  0.50047565  1
  Al  Al6  1  0.66687124  0.33459737  0.24919986  1
  Al  Al7  1  0.82504961  0.16361495  0.00153572  1
  Al  Al8  1  0.66955592  0.33320837  0.74984014  1
  Al  Al9  1  0.83550506  0.16621780  0.50047566  1
  Al  Al10  1  0.66643608  0.83356392  0.25106492  1
  Al  Al11  1  0.83221859  0.66778143  0.00108819  1
  Al  Al12  1  0.66927090  0.83072911  0.75115120  1
  Al  Al13  1  0.83410581  0.66589418  0.49954365  1
  Co  Co14  1  0.32821622  0.17178378  0.99806940  1
  Co  Co15  1  0.17190475  0.32809525  0.75710514  1
  N  N16  1  0.16657394  0.33342607  0.43949952  1
  N  N17  1  0.33082546  0.16917454  0.19283806  1
  N  N18  1  0.16091990  0.33908010  0.94489712  1
  N  N19  1  0.33969262  0.16030739  0.68621441  1
  N  N20  1  0.16678463  0.83229026  0.43961382  1
  N  N21  1  0.33349889  0.66893287  0.19096730  1
  N  N22  1  0.16075979  0.82721575  0.93932081  1
  N  N23  1  0.33877605  0.66927699  0.69103488  1
  N  N24  1  0.66770974  0.33321536  0.43961382  1
  N  N25  1  0.83106714  0.16650110  0.19096729  1
  N  N26  1  0.67278425  0.33924021  0.93932081  1
  N  N27  1  0.83072300  0.16122395  0.69103488  1
  N  N28  1  0.66692844  0.83307157  0.44089053  1
  N  N29  1  0.83251868  0.66748133  0.19103489  1
  N  N30  1  0.66586066  0.83413933  0.94153355  1
  N  N31  1  0.83468071  0.66531928  0.68984282  1
