# generated using pymatgen
data_HfO2
_symmetry_space_group_name_H-M   'P 1'
_cell_length_a   5.17224113
_cell_length_b   5.19237986
_cell_length_c   5.32474272
_cell_angle_alpha   90.00000000
_cell_angle_beta   99.39595670
_cell_angle_gamma   90.00000000
_symmetry_Int_Tables_number   1
_chemical_formula_structural   HfO2
_chemical_formula_sum   'Hf4 O8'
_cell_volume   141.08400435
_cell_formula_units_Z   4
loop_
 _symmetry_equiv_pos_site_id
 _symmetry_equiv_pos_as_xyz
  1  'x, y, z'
loop_
 _atom_site_type_symbol
 _atom_site_label
 _atom_site_symmetry_multiplicity
 _atom_site_fract_x
 _atom_site_fract_y
 _atom_site_fract_z
 _atom_site_occupancy
  Hf  Hf0  1  0.72464191  0.54241735  0.29257676  1
  Hf  Hf1  1  0.27535809  0.04241735  0.20742324  1
  Hf  Hf2  1  0.27535809  0.45758265  0.70742324  1
  Hf  Hf3  1  0.72464191  0.95758265  0.79257676  1
  O  O4  1  0.54987890  0.25735883  0.02239569  1
  O  O5  1  0.45012110  0.75735883  0.47760431  1
  O  O6  1  0.45012110  0.74264117  0.97760431  1
  O  O7  1  0.54987890  0.24264117  0.52239569  1
  O  O8  1  0.93203646  0.67008845  0.65235227  1
  O  O9  1  0.06796354  0.17008845  0.84764773  1
  O  O10  1  0.06796354  0.32991155  0.34764773  1
  O  O11  1  0.93203646  0.82991155  0.15235227  1
