# generated using pymatgen
data_MnFe8
_symmetry_space_group_name_H-M   'P 1'
_cell_length_a   8.50870723
_cell_length_b   8.50870723
_cell_length_c   5.67247149
_cell_angle_alpha   90.00000000
_cell_angle_beta   90.00000000
_cell_angle_gamma   90.00000000
_symmetry_Int_Tables_number   1
_chemical_formula_structural   MnFe8
_chemical_formula_sum   'Mn4 Fe32'
_cell_volume   410.67615095
_cell_formula_units_Z   4
loop_
 _symmetry_equiv_pos_site_id
 _symmetry_equiv_pos_as_xyz
  1  'x, y, z'
loop_
 _atom_site_type_symbol
 _atom_site_label
 _atom_site_symmetry_multiplicity
 _atom_site_fract_x
 _atom_site_fract_y
 _atom_site_fract_z
 _atom_site_occupancy
  Fe  Fe0  1  0.00006876  -0.00044553  -0.00000003  1
  Fe  Fe1  1  0.16764337  0.16566383  0.25158372  1
  Fe  Fe2  1  0.00016260  -0.00028806  0.50000004  1
  Fe  Fe3  1  0.16764336  0.16566386  0.74841631  1
  Fe  Fe4  1  0.00077613  0.33386425  0.00000003  1
  Fe  Fe5  1  0.16725339  0.50186170  0.25142377  1
  Fe  Fe6  1  0.00076184  0.33357515  0.49999996  1
  Fe  Fe7  1  0.16725338  0.50186167  0.74857618  1
  Fe  Fe8  1  0.16727364  0.83290037  0.25141975  1
  Fe  Fe9  1  0.00014127  0.66678584  0.50000003  1
  Fe  Fe10  1  0.16727368  0.83290037  0.74858025  1
  Fe  Fe11  1  0.33358043  -0.00020492  0.00000001  1
  Fe  Fe12  1  0.49957872  0.16637548  0.25155114  1
  Fe  Fe13  1  0.49957874  0.16637549  0.74844890  1
  Fe  Fe14  1  0.33296443  0.33390229  0.00000003  1
  Fe  Fe15  1  0.49959324  0.50067366  0.25228796  1
  Fe  Fe16  1  0.33313071  0.33386066  0.50000007  1
  Fe  Fe17  1  0.49959328  0.50067368  0.74771201  1
  Fe  Fe18  1  0.33325675  0.66666084  -0.00000009  1
  Fe  Fe19  1  0.49892632  0.83299758  0.25131759  1
  Fe  Fe20  1  0.49892634  0.83299755  0.74868243  1
  Fe  Fe21  1  0.66657645  -0.00071530  0.00000000  1
  Fe  Fe22  1  0.83293025  0.16705737  0.25198136  1
  Fe  Fe23  1  0.66647474  -0.00067109  0.50000000  1
  Fe  Fe24  1  0.83293026  0.16705742  0.74801865  1
  Fe  Fe25  1  0.66627416  0.33350464  -0.00000002  1
  Fe  Fe26  1  0.83293723  0.49990521  0.25182942  1
  Fe  Fe27  1  0.83293720  0.49990518  0.74817059  1
  Fe  Fe28  1  0.66657033  0.66689215  0.00000001  1
  Fe  Fe29  1  0.83387063  0.83256131  0.25064015  1
  Fe  Fe30  1  0.66627535  0.66692457  0.49999990  1
  Fe  Fe31  1  0.83387057  0.83256129  0.74935985  1
  Mn  Mn32  1  0.00006794  0.66636346  0.00000003  1
  Mn  Mn33  1  0.33288800  -0.00235745  0.50000010  1
  Mn  Mn34  1  0.33322713  0.66855654  0.49999987  1
  Mn  Mn35  1  0.66678939  0.33379893  0.50000002  1
