# generated using pymatgen
data_MnFe17
_symmetry_space_group_name_H-M   'P 1'
_cell_length_a   8.50870723
_cell_length_b   8.50870723
_cell_length_c   5.67247149
_cell_angle_alpha   90.00000000
_cell_angle_beta   90.00000000
_cell_angle_gamma   90.00000000
_symmetry_Int_Tables_number   1
_chemical_formula_structural   MnFe17
_chemical_formula_sum   'Mn2 Fe34'
_cell_volume   410.67615095
_cell_formula_units_Z   2
loop_
 _symmetry_equiv_pos_site_id
 _symmetry_equiv_pos_as_xyz
  1  'x, y, z'
loop_
 _atom_site_type_symbol
 _atom_site_label
 _atom_site_symmetry_multiplicity
 _atom_site_fract_x
 _atom_site_fract_y
 _atom_site_fract_z
 _atom_site_occupancy
  Fe  Fe0  1  0.00031614  -0.00014033  -0.00000003  1
  Fe  Fe1  1  0.16833536  0.16508113  0.25171388  1
  Fe  Fe2  1  0.00068234  -0.00059636  0.50000020  1
  Fe  Fe3  1  0.16833539  0.16508116  0.74828609  1
  Fe  Fe4  1  0.00094205  0.33333948  -0.00000003  1
  Fe  Fe5  1  0.16833080  0.50156470  0.25172117  1
  Fe  Fe6  1  0.00107396  0.33333550  0.50000014  1
  Fe  Fe7  1  0.16833084  0.50156473  0.74827863  1
  Fe  Fe8  1  0.00032546  0.66680295  -0.00000009  1
  Fe  Fe9  1  0.16778333  0.83334324  0.25067736  1
  Fe  Fe10  1  0.00068096  0.66726484  0.50000022  1
  Fe  Fe11  1  0.16778332  0.83334318  0.74932256  1
  Fe  Fe12  1  0.33332984  -0.00057936  0.00000000  1
  Fe  Fe13  1  0.49831881  0.16509542  0.25170154  1
  Fe  Fe14  1  0.49831882  0.16509542  0.74829844  1
  Fe  Fe15  1  0.33332147  0.33333010  -0.00000002  1
  Fe  Fe16  1  0.49831939  0.50156829  0.25172656  1
  Fe  Fe17  1  0.33332373  0.33332246  0.50000020  1
  Fe  Fe18  1  0.49831940  0.50156833  0.74827330  1
  Fe  Fe19  1  0.33332949  0.66723051  -0.00000013  1
  Fe  Fe20  1  0.49887680  0.83335330  0.25069136  1
  Fe  Fe21  1  0.49887684  0.83335325  0.74930852  1
  Fe  Fe22  1  0.66634232  -0.00014965  -0.00000004  1
  Fe  Fe23  1  0.83335713  0.16614039  0.25157409  1
  Fe  Fe24  1  0.66597214  -0.00060647  0.50000011  1
  Fe  Fe25  1  0.83335710  0.16614043  0.74842589  1
  Fe  Fe26  1  0.66574416  0.33333070  -0.00000005  1
  Fe  Fe27  1  0.83334421  0.50050154  0.25157252  1
  Fe  Fe28  1  0.66560887  0.33332194  0.50000020  1
  Fe  Fe29  1  0.83334418  0.50050156  0.74842739  1
  Fe  Fe30  1  0.66636023  0.66681072  -0.00000011  1
  Fe  Fe31  1  0.83335232  0.83335068  0.25096163  1
  Fe  Fe32  1  0.66599737  0.66726837  0.50000014  1
  Fe  Fe33  1  0.83335227  0.83335063  0.74903827  1
  Mn  Mn34  1  0.33330628  -0.00315817  0.50000007  1
  Mn  Mn35  1  0.33330691  0.66987538  0.50000002  1
