# generated using pymatgen
data_MnCrCoNi
_symmetry_space_group_name_H-M   'P 1'
_cell_length_a   7.99383892
_cell_length_b   8.63012239
_cell_length_c   4.99766537
_cell_angle_alpha   89.84607254
_cell_angle_beta   90.10485537
_cell_angle_gamma   89.94751641
_symmetry_Int_Tables_number   1
_chemical_formula_structural   MnCrCoNi
_chemical_formula_sum   'Mn8 Cr8 Co8 Ni8'
_cell_volume   344.77601225
_cell_formula_units_Z   8
loop_
 _symmetry_equiv_pos_site_id
 _symmetry_equiv_pos_as_xyz
  1  'x, y, z'
loop_
 _atom_site_type_symbol
 _atom_site_label
 _atom_site_symmetry_multiplicity
 _atom_site_fract_x
 _atom_site_fract_y
 _atom_site_fract_z
 _atom_site_occupancy
  Co  Co0  1  0.74703773  0.96018241  0.75250182  1
  Co  Co1  1  0.49629950  0.04268013  0.49562368  1
  Co  Co2  1  0.75122543  0.45798431  0.24965863  1
  Co  Co3  1  0.75024818  0.70580099  0.49753714  1
  Co  Co4  1  0.24925701  0.21157984  0.00299808  1
  Co  Co5  1  0.24863708  0.45543944  0.25488022  1
  Co  Co6  1  0.74904198  0.70534424  0.99779925  1
  Co  Co7  1  0.99780149  0.79112961  0.25150703  1
  Cr  Cr8  1  0.25328157  0.21070084  0.50088908  1
  Cr  Cr9  1  0.50158271  0.54056156  0.49886726  1
  Cr  Cr10  1  0.50724104  0.79611467  0.75044450  1
  Cr  Cr11  1  0.00332452  0.03552716  0.00103615  1
  Cr  Cr12  1  0.99589426  0.28977851  0.24497168  1
  Cr  Cr13  1  0.99471484  0.79045196  0.74517451  1
  Cr  Cr14  1  0.50398993  0.79697881  0.24644683  1
  Cr  Cr15  1  0.24470391  0.70817566  0.99852558  1
  Mn  Mn16  1  0.25497339  0.95628174  0.76316404  1
  Mn  Mn17  1  0.75334661  0.46077084  0.75323433  1
  Mn  Mn18  1  0.24567280  0.46101496  0.75335289  1
  Mn  Mn19  1  0.49628468  0.04061786  0.00438510  1
  Mn  Mn20  1  0.75342316  0.21111111  0.00157151  1
  Mn  Mn21  1  0.00239103  0.53973245  0.50286945  1
  Mn  Mn22  1  0.49969682  0.54082234  0.98551784  1
  Mn  Mn23  1  0.99690675  0.54118679  0.99194739  1
  Ni  Ni24  1  0.49854648  0.29030302  0.75140521  1
  Ni  Ni25  1  0.74992755  0.95810704  0.25284521  1
  Ni  Ni26  1  0.75017315  0.21097899  0.50312841  1
  Ni  Ni27  1  0.00223082  0.04224737  0.49845904  1
  Ni  Ni28  1  0.00166451  0.28900859  0.74742121  1
  Ni  Ni29  1  0.24946807  0.95818958  0.26047886  1
  Ni  Ni30  1  0.50100585  0.29479720  0.24415784  1
  Ni  Ni31  1  0.25000712  0.70640003  0.49720023  1
