# generated using pymatgen
data_MnCoNiW
_symmetry_space_group_name_H-M   'P 1'
_cell_length_a   8.94400393
_cell_length_b   8.35852607
_cell_length_c   5.15277794
_cell_angle_alpha   89.74138304
_cell_angle_beta   90.16587460
_cell_angle_gamma   90.27392762
_symmetry_Int_Tables_number   1
_chemical_formula_structural   MnCoNiW
_chemical_formula_sum   'Mn8 Co8 Ni8 W8'
_cell_volume   385.20501198
_cell_formula_units_Z   8
loop_
 _symmetry_equiv_pos_site_id
 _symmetry_equiv_pos_as_xyz
  1  'x, y, z'
loop_
 _atom_site_type_symbol
 _atom_site_label
 _atom_site_symmetry_multiplicity
 _atom_site_fract_x
 _atom_site_fract_y
 _atom_site_fract_z
 _atom_site_occupancy
  Co  Co0  1  0.95416496  0.25215176  0.75223883  1
  Co  Co1  1  0.46699238  0.25534368  0.25785721  1
  Co  Co2  1  0.53838951  0.50035808  0.50288075  1
  Co  Co3  1  0.04035519  0.00328829  0.99790869  1
  Co  Co4  1  0.95484915  0.74369890  0.74940257  1
  Co  Co5  1  0.46127927  0.74712269  0.24879816  1
  Co  Co6  1  0.05175111  0.49821603  0.98347865  1
  Co  Co7  1  0.20602945  0.74551988  0.98151874  1
  Mn  Mn8  1  0.78970679  0.99661305  0.76812673  1
  Mn  Mn9  1  0.29038721  0.98785581  0.73641784  1
  Mn  Mn10  1  0.79235177  0.99841604  0.24794057  1
  Mn  Mn11  1  0.29787760  0.50919295  0.76576039  1
  Mn  Mn12  1  0.54476767  0.99190673  0.00001258  1
  Mn  Mn13  1  0.20505274  0.25009682  0.00006615  1
  Mn  Mn14  1  0.29919400  0.50048134  0.22568961  1
  Mn  Mn15  1  0.70538658  0.77078228  0.01161581  1
  Ni  Ni16  1  0.70837369  0.25241854  0.50324139  1
  Ni  Ni17  1  0.45989991  0.74893142  0.75666802  1
  Ni  Ni18  1  0.70483896  0.24257507  0.00832524  1
  Ni  Ni19  1  0.78000868  0.50173939  0.25651573  1
  Ni  Ni20  1  0.71098614  0.74763852  0.49944580  1
  Ni  Ni21  1  0.04060456  0.50351202  0.50437846  1
  Ni  Ni22  1  0.20976403  0.74090067  0.49308137  1
  Ni  Ni23  1  0.54607811  0.50647155  0.01647316  1
  W  W24  1  0.54902429  0.99178257  0.50301326  1
  W  W25  1  0.45760831  0.26371232  0.77146579  1
  W  W26  1  0.79342260  0.50238021  0.76280827  1
  W  W27  1  0.02893268  0.99365785  0.52093125  1
  W  W28  1  0.28910121  0.98925681  0.22267835  1
  W  W29  1  0.20993005  0.26775203  0.49496107  1
  W  W30  1  0.95239865  0.25790807  0.23111221  1
  W  W31  1  0.96049274  0.73831868  0.22518730  1
