# generated using pymatgen
data_HfTaTiNbCrC5
_symmetry_space_group_name_H-M   'P 1'
_cell_length_a   7.01369570
_cell_length_b   7.02900767
_cell_length_c   4.40257758
_cell_angle_alpha   90.00000000
_cell_angle_beta   90.00000000
_cell_angle_gamma   89.59274417
_symmetry_Int_Tables_number   1
_chemical_formula_structural   HfTaTiNbCrC5
_chemical_formula_sum   'Hf2 Ta2 Ti2 Nb2 Cr2 C10'
_cell_volume   217.03860202
_cell_formula_units_Z   2
loop_
 _symmetry_equiv_pos_site_id
 _symmetry_equiv_pos_as_xyz
  1  'x, y, z'
loop_
 _atom_site_type_symbol
 _atom_site_label
 _atom_site_symmetry_multiplicity
 _atom_site_fract_x
 _atom_site_fract_y
 _atom_site_fract_z
 _atom_site_occupancy
  C  C0  1  0.29613225  0.90536755  0.00000000  1
  C  C1  1  0.50484001  0.48802598  0.00000000  1
  C  C2  1  0.40381246  0.19395229  0.50000000  1
  C  C3  1  0.09348475  0.30027730  0.00000000  1
  C  C4  1  0.99601976  0.00094227  0.50000000  1
  C  C5  1  0.70045738  0.11529302  0.00000000  1
  C  C6  1  0.60083762  0.80696199  0.50000000  1
  C  C7  1  0.19874433  0.60312596  0.50000000  1
  C  C8  1  0.90495256  0.70258693  0.00000000  1
  C  C9  1  0.80512426  0.39487166  0.50000000  1
  Hf  Hf10  1  0.50674012  0.49582968  0.50000000  1
  Hf  Hf11  1  0.60260871  0.81163063  0.00000000  1
  Nb  Nb12  1  0.20027548  0.59718539  0.00000000  1
  Nb  Nb13  1  0.09906380  0.29427149  0.50000000  1
  Ta  Ta14  1  0.90033903  0.70536859  0.50000000  1
  Ta  Ta15  1  0.00247023  0.00767012  0.00000000  1
  Ti  Ti16  1  0.30755274  0.90323076  0.50000000  1
  Ti  Ti17  1  0.40456092  0.19856862  0.00000000  1
  Cr  Cr18  1  0.68904441  0.10481216  0.50000000  1
  Cr  Cr19  1  0.78293918  0.37002759  0.00000000  1
