# generated using pymatgen
data_HfTaTiNbWC5
_symmetry_space_group_name_H-M   'P 1'
_cell_length_a   7.05713614
_cell_length_b   7.06184316
_cell_length_c   4.46040792
_cell_angle_alpha   90.00000000
_cell_angle_beta   90.00000000
_cell_angle_gamma   89.95366135
_symmetry_Int_Tables_number   1
_chemical_formula_structural   HfTaTiNbWC5
_chemical_formula_sum   'Hf2 Ta2 Ti2 Nb2 W2 C10'
_cell_volume   222.29054961
_cell_formula_units_Z   2
loop_
 _symmetry_equiv_pos_site_id
 _symmetry_equiv_pos_as_xyz
  1  'x, y, z'
loop_
 _atom_site_type_symbol
 _atom_site_label
 _atom_site_symmetry_multiplicity
 _atom_site_fract_x
 _atom_site_fract_y
 _atom_site_fract_z
 _atom_site_occupancy
  C  C0  1  0.29533204  0.90403299  0.00000000  1
  C  C1  1  0.50356436  0.49299522  0.00000000  1
  C  C2  1  0.40176069  0.19494945  0.50000000  1
  C  C3  1  0.09813666  0.29651064  0.00000000  1
  C  C4  1  0.99852692  0.99802873  0.50000000  1
  C  C5  1  0.69887139  0.10820126  0.00000000  1
  C  C6  1  0.60084226  0.80658590  0.50000000  1
  C  C7  1  0.19645250  0.60168678  0.50000000  1
  C  C8  1  0.90238048  0.69942087  0.00000000  1
  C  C9  1  0.80505780  0.39791148  0.50000000  1
  Hf  Hf10  1  0.49990438  0.50082388  0.50000000  1
  Hf  Hf11  1  0.59749257  0.80721586  0.00000000  1
  Nb  Nb12  1  0.20183520  0.59474023  0.00000000  1
  Nb  Nb13  1  0.10770808  0.29128718  0.50000000  1
  Ta  Ta14  1  0.90316480  0.70211730  0.50000000  1
  Ta  Ta15  1  0.00590446  0.00046165  0.00000000  1
  Ti  Ti16  1  0.30083102  0.90161696  0.50000000  1
  Ti  Ti17  1  0.39856330  0.19847794  0.00000000  1
  W  W18  1  0.68858431  0.10416786  0.50000000  1
  W  W19  1  0.79508682  0.39876781  0.00000000  1
