# generated using pymatgen
data_Zr3TiC4
_symmetry_space_group_name_H-M   'P 1'
_cell_length_a   9.25239995
_cell_length_b   9.25326829
_cell_length_c   9.25967810
_cell_angle_alpha   89.97862159
_cell_angle_beta   89.97983824
_cell_angle_gamma   89.99587523
_symmetry_Int_Tables_number   1
_chemical_formula_structural   Zr3TiC4
_chemical_formula_sum   'Zr24 Ti8 C32'
_cell_volume   792.76667012
_cell_formula_units_Z   8
loop_
 _symmetry_equiv_pos_site_id
 _symmetry_equiv_pos_as_xyz
  1  'x, y, z'
loop_
 _atom_site_type_symbol
 _atom_site_label
 _atom_site_symmetry_multiplicity
 _atom_site_fract_x
 _atom_site_fract_y
 _atom_site_fract_z
 _atom_site_occupancy
  Zr  Zr0  1  0.99901397  0.99959440  0.00128354  1
  Zr  Zr1  1  0.00043008  0.25267107  0.24745385  1
  Zr  Zr2  1  0.25110134  0.99704752  0.25089328  1
  Zr  Zr3  1  0.25019255  0.25101285  0.00133666  1
  Zr  Zr4  1  0.00161771  0.99740807  0.49851674  1
  Zr  Zr5  1  0.99919984  0.25124908  0.75239617  1
  Zr  Zr6  1  0.25363866  0.99688701  0.74927910  1
  Zr  Zr7  1  0.25143301  0.24999316  0.49869011  1
  Zr  Zr8  1  0.24996909  0.74884065  0.00174952  1
  Zr  Zr9  1  0.00271113  0.50305071  0.49678504  1
  Zr  Zr10  1  0.00146442  0.74897217  0.75022394  1
  Zr  Zr11  1  0.25051497  0.50248899  0.75011764  1
  Zr  Zr12  1  0.49982844  0.24881544  0.24864326  1
  Zr  Zr13  1  0.74839226  0.99960223  0.24865194  1
  Zr  Zr14  1  0.50076222  0.24737661  0.75150725  1
  Zr  Zr15  1  0.74647358  0.99912257  0.75136629  1
  Zr  Zr16  1  0.74864468  0.24891659  0.49965006  1
  Zr  Zr17  1  0.49981093  0.50049717  0.00033160  1
  Zr  Zr18  1  0.49721111  0.75088437  0.25110415  1
  Zr  Zr19  1  0.75227669  0.50078972  0.24742150  1
  Zr  Zr20  1  0.74960261  0.75001290  0.00036807  1
  Zr  Zr21  1  0.49760792  0.50319989  0.49977943  1
  Zr  Zr22  1  0.75000507  0.50036776  0.75226992  1
  Zr  Zr23  1  0.74822052  0.75118084  0.49985972  1
  C  C24  1  0.25009948  0.25469967  0.24974778  1
  C  C25  1  0.25557997  0.99910523  0.00046786  1
  C  C26  1  0.99506204  0.25531255  0.00067118  1
  C  C27  1  0.00058772  0.99440036  0.24946346  1
  C  C28  1  0.25083738  0.25000430  0.75050064  1
  C  C29  1  0.25634596  0.99344564  0.49960424  1
  C  C30  1  0.00049866  0.25028338  0.49920375  1
  C  C31  1  0.00026694  0.99892905  0.75041390  1
  C  C32  1  0.24489837  0.74445061  0.25502552  1
  C  C33  1  0.24497347  0.50085765  0.00581581  1
  C  C34  1  0.00046150  0.74450332  0.00584229  1
  C  C35  1  0.00609741  0.50643352  0.24405267  1
  C  C36  1  0.25576370  0.74982330  0.74545102  1
  C  C37  1  0.25025474  0.50671370  0.49428212  1
  C  C38  1  0.00585970  0.74983468  0.49447296  1
  C  C39  1  0.00064651  0.50100367  0.75521577  1
  C  C40  1  0.74984132  0.25012114  0.24400682  1
  C  C41  1  0.74416908  0.00448299  0.00012424  1
  C  C42  1  0.50514395  0.24493562  0.00009920  1
  C  C43  1  0.49939665  0.99884179  0.24936790  1
  C  C44  1  0.74939965  0.24974004  0.75572141  1
  C  C45  1  0.74400715  0.99911800  0.49978634  1
  C  C46  1  0.49958347  0.24486231  0.49994666  1
  C  C47  1  0.49972888  0.99335269  0.75006532  1
  C  C48  1  0.75408635  0.74994919  0.24966742  1
  C  C49  1  0.75475647  0.49564080  0.00047275  1
  C  C50  1  0.49950981  0.75544354  0.99546320  1
  C  C51  1  0.49450052  0.50114333  0.24948602  1
  C  C52  1  0.74471317  0.75016917  0.75038127  1
  C  C53  1  0.74986711  0.50091610  0.49932794  1
  C  C54  1  0.49376543  0.75601057  0.50473200  1
  C  C55  1  0.49958923  0.50558149  0.75047059  1
  Ti  Ti56  1  0.00108097  0.50148523  0.00268280  1
  Ti  Ti57  1  0.00283625  0.74786249  0.24948667  1
  Ti  Ti58  1  0.24812174  0.50340961  0.24950265  1
  Ti  Ti59  1  0.25111517  0.74997488  0.49871494  1
  Ti  Ti60  1  0.50049567  0.99850410  0.99939437  1
  Ti  Ti61  1  0.74948526  0.25003018  0.00041330  1
  Ti  Ti62  1  0.49803884  0.99651952  0.50129034  1
  Ti  Ti63  1  0.49841151  0.75212282  0.74948611  1
