# generated using pymatgen
data_ZrTi3C4
_symmetry_space_group_name_H-M   'P 1'
_cell_length_a   8.88459996
_cell_length_b   8.87817179
_cell_length_c   8.87776281
_cell_angle_alpha   89.96243556
_cell_angle_beta   89.96318076
_cell_angle_gamma   90.03697468
_symmetry_Int_Tables_number   1
_chemical_formula_structural   ZrTi3C4
_chemical_formula_sum   'Zr8 Ti24 C32'
_cell_volume   700.26865376
_cell_formula_units_Z   8
loop_
 _symmetry_equiv_pos_site_id
 _symmetry_equiv_pos_as_xyz
  1  'x, y, z'
loop_
 _atom_site_type_symbol
 _atom_site_label
 _atom_site_symmetry_multiplicity
 _atom_site_fract_x
 _atom_site_fract_y
 _atom_site_fract_z
 _atom_site_occupancy
  Zr  Zr0  1  0.00156219  0.00119003  0.99655700  1
  Zr  Zr1  1  0.00045864  0.74630506  0.24982257  1
  Zr  Zr2  1  0.25152736  0.74946497  0.50184826  1
  Zr  Zr3  1  0.49812553  0.99886676  0.99652864  1
  Zr  Zr4  1  0.49653684  0.25324012  0.24991076  1
  Zr  Zr5  1  0.74961338  0.99828800  0.25152334  1
  Zr  Zr6  1  0.75147025  0.25044449  0.50225771  1
  Zr  Zr7  1  0.75012054  0.50115697  0.75159607  1
  Ti  Ti8  1  0.00333289  0.25310696  0.24989291  1
  Ti  Ti9  1  0.24956845  0.00168752  0.25142352  1
  Ti  Ti10  1  0.24850696  0.25394507  0.99752615  1
  Ti  Ti11  1  0.00288158  0.00144003  0.50312475  1
  Ti  Ti12  1  0.00413250  0.25141916  0.74983440  1
  Ti  Ti13  1  0.25003661  0.00172735  0.74825134  1
  Ti  Ti14  1  0.24898258  0.25115025  0.50249352  1
  Ti  Ti15  1  0.00263299  0.49868576  0.99884556  1
  Ti  Ti16  1  0.24963506  0.49879123  0.24854292  1
  Ti  Ti17  1  0.25125288  0.74604208  0.99780313  1
  Ti  Ti18  1  0.00303766  0.49817309  0.50117148  1
  Ti  Ti19  1  0.00110902  0.74901240  0.74995856  1
  Ti  Ti20  1  0.25008694  0.49899308  0.75121486  1
  Ti  Ti21  1  0.75141576  0.25372366  0.99868302  1
  Ti  Ti22  1  0.49798225  0.99899654  0.50320411  1
  Ti  Ti23  1  0.49588700  0.25149980  0.74985162  1
  Ti  Ti24  1  0.75003882  0.99855173  0.74889443  1
  Ti  Ti25  1  0.49719243  0.50117371  0.99877804  1
  Ti  Ti26  1  0.49904227  0.74639380  0.24954301  1
  Ti  Ti27  1  0.74957207  0.50092116  0.24884438  1
  Ti  Ti28  1  0.74838761  0.74623977  0.99841225  1
  Ti  Ti29  1  0.49809120  0.50148720  0.50108986  1
  Ti  Ti30  1  0.49910849  0.74900804  0.74992024  1
  Ti  Ti31  1  0.74891834  0.74919767  0.50281417  1
  C  C32  1  0.24366509  0.25170730  0.24969165  1
  C  C33  1  0.24986043  0.00059972  0.99837813  1
  C  C34  1  0.00178313  0.25731352  0.99853009  1
  C  C35  1  0.00700150  0.00570028  0.25602837  1
  C  C36  1  0.24964194  0.25104506  0.75016578  1
  C  C37  1  0.24997301  0.00601364  0.50171961  1
  C  C38  1  0.00729084  0.25117925  0.50165437  1
  C  C39  1  0.00166602  0.00033972  0.74345202  1
  C  C40  1  0.25598593  0.74807027  0.24407197  1
  C  C41  1  0.24992147  0.49968071  0.99901631  1
  C  C42  1  0.00082686  0.74269558  0.99301280  1
  C  C43  1  0.00179119  0.49352701  0.24978467  1
  C  C44  1  0.25045671  0.74907198  0.75595376  1
  C  C45  1  0.25005470  0.49415000  0.50084218  1
  C  C46  1  0.99533409  0.74887073  0.50698565  1
  C  C47  1  0.00704801  0.49939641  0.75004022  1
  C  C48  1  0.75573666  0.25698657  0.24413615  1
  C  C49  1  0.74986492  0.99923341  0.99313944  1
  C  C50  1  0.49799459  0.25731706  0.99302435  1
  C  C51  1  0.49280788  0.99433990  0.25598245  1
  C  C52  1  0.75056416  0.24510849  0.75638439  1
  C  C53  1  0.74990383  0.99396075  0.50736484  1
  C  C54  1  0.49311305  0.25126342  0.50698555  1
  C  C55  1  0.49835569  0.99976353  0.74346304  1
  C  C56  1  0.74381525  0.74263892  0.24954180  1
  C  C57  1  0.74993871  0.50022663  0.00517914  1
  C  C58  1  0.49913789  0.74268365  0.99845999  1
  C  C59  1  0.49839405  0.50628782  0.24970861  1
  C  C60  1  0.74950334  0.75496498  0.75032305  1
  C  C61  1  0.74996420  0.50602243  0.49518204  1
  C  C62  1  0.50520658  0.74894179  0.50160174  1
  C  C63  1  0.49315123  0.50057600  0.75003327  1
