# generated using pymatgen
data_ZrTiC2
_symmetry_space_group_name_H-M   'P 1'
_cell_length_a   9.09357928
_cell_length_b   9.07103944
_cell_length_c   9.07489895
_cell_angle_alpha   90.00708250
_cell_angle_beta   90.00396876
_cell_angle_gamma   89.99585692
_symmetry_Int_Tables_number   1
_chemical_formula_structural   ZrTiC2
_chemical_formula_sum   'Zr16 Ti16 C32'
_cell_volume   748.57221841
_cell_formula_units_Z   16
loop_
 _symmetry_equiv_pos_site_id
 _symmetry_equiv_pos_as_xyz
  1  'x, y, z'
loop_
 _atom_site_type_symbol
 _atom_site_label
 _atom_site_symmetry_multiplicity
 _atom_site_fract_x
 _atom_site_fract_y
 _atom_site_fract_z
 _atom_site_occupancy
  Zr  Zr0  1  0.00183677  0.99835437  0.00049995  1
  Zr  Zr1  1  0.25040059  0.24610449  0.00019185  1
  Zr  Zr2  1  0.24914610  0.24509869  0.49990868  1
  Zr  Zr3  1  0.00037706  0.50198446  0.00407744  1
  Zr  Zr4  1  0.00029972  0.49944242  0.49618711  1
  Zr  Zr5  1  0.00035677  0.75506067  0.75115786  1
  Zr  Zr6  1  0.25140684  0.50074278  0.75152621  1
  Zr  Zr7  1  0.25143990  0.75444582  0.49708369  1
  Zr  Zr8  1  0.49823201  0.24742576  0.24978828  1
  Zr  Zr9  1  0.74948751  0.99657453  0.24941329  1
  Zr  Zr10  1  0.74963308  0.24732096  0.99914013  1
  Zr  Zr11  1  0.75065877  0.24616201  0.50117687  1
  Zr  Zr12  1  0.49965566  0.50506907  0.00168183  1
  Zr  Zr13  1  0.49961288  0.50215473  0.49857871  1
  Zr  Zr14  1  0.74856784  0.50070770  0.75163525  1
  Zr  Zr15  1  0.74846339  0.75305365  0.49852679  1
  Ti  Ti16  1  0.00179178  0.24717900  0.25094827  1
  Ti  Ti17  1  0.25084203  0.99622841  0.24915491  1
  Ti  Ti18  1  0.00192570  0.00017426  0.49946935  1
  Ti  Ti19  1  0.00050500  0.24430997  0.74879046  1
  Ti  Ti20  1  0.25380063  0.99890514  0.75056662  1
  Ti  Ti21  1  0.00234331  0.75191983  0.24824344  1
  Ti  Ti22  1  0.24928993  0.50416994  0.24825078  1
  Ti  Ti23  1  0.25363788  0.75448445  0.00238847  1
  Ti  Ti24  1  0.49852682  0.99606032  0.99802329  1
  Ti  Ti25  1  0.49841120  0.99811927  0.50217480  1
  Ti  Ti26  1  0.49946944  0.24207927  0.75054669  1
  Ti  Ti27  1  0.74597277  0.99884642  0.75075652  1
  Ti  Ti28  1  0.49767349  0.75336048  0.24669711  1
  Ti  Ti29  1  0.75069417  0.50353949  0.24825628  1
  Ti  Ti30  1  0.74648643  0.75289600  0.00133259  1
  Ti  Ti31  1  0.49952159  0.75757237  0.75319109  1
  C  C32  1  0.24415206  0.24735718  0.24969380  1
  C  C33  1  0.25647450  0.99294319  0.00047463  1
  C  C34  1  0.00044983  0.24822307  0.00064597  1
  C  C35  1  0.00617163  0.99874985  0.25508968  1
  C  C36  1  0.25084062  0.24154634  0.75022479  1
  C  C37  1  0.25105526  0.99924223  0.49992798  1
  C  C38  1  0.00041546  0.24209337  0.49936423  1
  C  C39  1  0.00094906  0.00575031  0.74486367  1
  C  C40  1  0.25083646  0.75229253  0.24345412  1
  C  C41  1  0.25057866  0.50661958  0.00686666  1
  C  C42  1  0.00091795  0.75170302  0.00678119  1
  C  C43  1  0.00107350  0.50207026  0.24967783  1
  C  C44  1  0.25669607  0.75832829  0.75598732  1
  C  C45  1  0.25021298  0.50087692  0.49338880  1
  C  C46  1  0.00050510  0.75770329  0.49370347  1
  C  C47  1  0.00023029  0.49559877  0.75029464  1
  C  C48  1  0.75525445  0.25328770  0.24972999  1
  C  C49  1  0.74389304  0.99291758  0.99472733  1
  C  C50  1  0.49954325  0.24247750  0.99423259  1
  C  C51  1  0.49366806  0.99281892  0.24938665  1
  C  C52  1  0.74902076  0.24179286  0.75028234  1
  C  C53  1  0.74882502  0.99918898  0.50544350  1
  C  C54  1  0.49947256  0.24194420  0.50558835  1
  C  C55  1  0.49925078  0.99883034  0.75073041  1
  C  C56  1  0.74888957  0.74563977  0.24340814  1
  C  C57  1  0.74947593  0.50671237  0.00652812  1
  C  C58  1  0.49930734  0.75806116  0.00062403  1
  C  C59  1  0.49887571  0.50704661  0.24934702  1
  C  C60  1  0.74340023  0.75782940  0.75616610  1
  C  C61  1  0.74975200  0.50077528  0.49370918  1
  C  C62  1  0.49954773  0.75834038  0.49960152  1
  C  C63  1  0.49979708  0.50169202  0.75069144  1
