# generated using pymatgen
data_Zr3TiC4
_symmetry_space_group_name_H-M   'P 1'
_cell_length_a   9.25239995
_cell_length_b   9.25326829
_cell_length_c   9.25967810
_cell_angle_alpha   89.97862159
_cell_angle_beta   89.97983824
_cell_angle_gamma   89.99587523
_symmetry_Int_Tables_number   1
_chemical_formula_structural   Zr3TiC4
_chemical_formula_sum   'Zr24 Ti8 C32'
_cell_volume   792.76667012
_cell_formula_units_Z   8
loop_
 _symmetry_equiv_pos_site_id
 _symmetry_equiv_pos_as_xyz
  1  'x, y, z'
loop_
 _atom_site_type_symbol
 _atom_site_label
 _atom_site_symmetry_multiplicity
 _atom_site_fract_x
 _atom_site_fract_y
 _atom_site_fract_z
 _atom_site_occupancy
  Zr  Zr0  1  0.99902516  0.99956376  0.00126240  1
  Zr  Zr1  1  0.00043396  0.25269273  0.24743323  1
  Zr  Zr2  1  0.25112092  0.99702079  0.25086425  1
  Zr  Zr3  1  0.25022048  0.25098082  0.00134376  1
  Zr  Zr4  1  0.00159425  0.99734596  0.49854924  1
  Zr  Zr5  1  0.99919682  0.25122323  0.75240290  1
  Zr  Zr6  1  0.25361084  0.99689908  0.74927797  1
  Zr  Zr7  1  0.25142110  0.24999870  0.49871054  1
  Zr  Zr8  1  0.24997236  0.74884687  0.00173897  1
  Zr  Zr9  1  0.00272462  0.50307658  0.49675595  1
  Zr  Zr10  1  0.00147294  0.74901175  0.75023647  1
  Zr  Zr11  1  0.25053520  0.50251803  0.75013601  1
  Zr  Zr12  1  0.49984290  0.24881691  0.24863095  1
  Zr  Zr13  1  0.74837724  0.99958109  0.24866036  1
  Zr  Zr14  1  0.50079477  0.24738039  0.75147346  1
  Zr  Zr15  1  0.74648634  0.99910679  0.75134659  1
  Zr  Zr16  1  0.74866547  0.24897159  0.49964933  1
  Zr  Zr17  1  0.49981813  0.50050671  0.00033455  1
  Zr  Zr18  1  0.49722644  0.75089480  0.25110913  1
  Zr  Zr19  1  0.75225934  0.50081841  0.24745835  1
  Zr  Zr20  1  0.74958541  0.75000781  0.00035738  1
  Zr  Zr21  1  0.49761537  0.50321134  0.49977291  1
  Zr  Zr22  1  0.74997196  0.50037609  0.75228066  1
  Zr  Zr23  1  0.74823759  0.75117434  0.49984977  1
  C  C24  1  0.25009527  0.25469735  0.24969704  1
  C  C25  1  0.25563504  0.99911224  0.00048062  1
  C  C26  1  0.99511943  0.25530640  0.00066168  1
  C  C27  1  0.00054743  0.99437753  0.24948173  1
  C  C28  1  0.25078522  0.25000079  0.75046973  1
  C  C29  1  0.25633150  0.99342769  0.49960703  1
  C  C30  1  0.00048366  0.25028650  0.49919063  1
  C  C31  1  0.00025585  0.99897110  0.75042770  1
  C  C32  1  0.24489637  0.74444312  0.25503824  1
  C  C33  1  0.24496087  0.50086468  0.00580984  1
  C  C34  1  0.00045477  0.74447396  0.00580665  1
  C  C35  1  0.00607592  0.50642572  0.24400381  1
  C  C36  1  0.25578421  0.74981878  0.74543085  1
  C  C37  1  0.25023570  0.50668891  0.49431205  1
  C  C38  1  0.00589250  0.74988219  0.49444671  1
  C  C39  1  0.00066638  0.50099910  0.75524761  1
  C  C40  1  0.74985803  0.25012619  0.24394306  1
  C  C41  1  0.74412403  0.00440372  0.00014682  1
  C  C42  1  0.50508514  0.24491064  0.00011369  1
  C  C43  1  0.49940965  0.99887771  0.24942155  1
  C  C44  1  0.74940116  0.24973148  0.75582817  1
  C  C45  1  0.74399591  0.99914979  0.49981079  1
  C  C46  1  0.49956875  0.24483479  0.49995597  1
  C  C47  1  0.49973885  0.99336589  0.75011202  1
  C  C48  1  0.75407639  0.74994869  0.24965910  1
  C  C49  1  0.75477958  0.49565994  0.00045170  1
  C  C50  1  0.49951309  0.75546174  0.99551999  1
  C  C51  1  0.49449366  0.50109921  0.24949784  1
  C  C52  1  0.74466716  0.75015488  0.75038476  1
  C  C53  1  0.74985886  0.50087726  0.49937141  1
  C  C54  1  0.49376982  0.75600513  0.50470723  1
  C  C55  1  0.49959744  0.50561543  0.75045335  1
  Ti  Ti56  1  0.00102180  0.50145143  0.00262867  1
  Ti  Ti57  1  0.00282626  0.74784450  0.24946827  1
  Ti  Ti58  1  0.24816943  0.50342070  0.24949815  1
  Ti  Ti59  1  0.25122173  0.74998498  0.49870774  1
  Ti  Ti60  1  0.50044184  0.99862231  0.99944376  1
  Ti  Ti61  1  0.74946242  0.25001804  0.00040294  1
  Ti  Ti62  1  0.49811064  0.99649471  0.50123332  1
  Ti  Ti63  1  0.49837864  0.75214020  0.74949267  1
