# generated using pymatgen
data_ZrTi3C4
_symmetry_space_group_name_H-M   'P 1'
_cell_length_a   8.88459996
_cell_length_b   8.87817179
_cell_length_c   8.87776281
_cell_angle_alpha   89.96243556
_cell_angle_beta   89.96318076
_cell_angle_gamma   90.03697468
_symmetry_Int_Tables_number   1
_chemical_formula_structural   ZrTi3C4
_chemical_formula_sum   'Zr8 Ti24 C32'
_cell_volume   700.26865376
_cell_formula_units_Z   8
loop_
 _symmetry_equiv_pos_site_id
 _symmetry_equiv_pos_as_xyz
  1  'x, y, z'
loop_
 _atom_site_type_symbol
 _atom_site_label
 _atom_site_symmetry_multiplicity
 _atom_site_fract_x
 _atom_site_fract_y
 _atom_site_fract_z
 _atom_site_occupancy
  Zr  Zr0  1  0.00158713  0.00119395  0.99657459  1
  Zr  Zr1  1  0.00049127  0.74631022  0.24983374  1
  Zr  Zr2  1  0.25150714  0.74943548  0.50187631  1
  Zr  Zr3  1  0.49811384  0.99886410  0.99655293  1
  Zr  Zr4  1  0.49654643  0.25328459  0.24992275  1
  Zr  Zr5  1  0.74963104  0.99833133  0.25151988  1
  Zr  Zr6  1  0.75145324  0.25047574  0.50224014  1
  Zr  Zr7  1  0.75011841  0.50116867  0.75155045  1
  Ti  Ti8  1  0.00337915  0.25314926  0.24989956  1
  Ti  Ti9  1  0.24958117  0.00169994  0.25145280  1
  Ti  Ti10  1  0.24851587  0.25396376  0.99750704  1
  Ti  Ti11  1  0.00285552  0.00143482  0.50317009  1
  Ti  Ti12  1  0.00415021  0.25141857  0.74982468  1
  Ti  Ti13  1  0.25002880  0.00170994  0.74827689  1
  Ti  Ti14  1  0.24895990  0.25116168  0.50251818  1
  Ti  Ti15  1  0.00265857  0.49868822  0.99883778  1
  Ti  Ti16  1  0.24966380  0.49879941  0.24854388  1
  Ti  Ti17  1  0.25126742  0.74601448  0.99777611  1
  Ti  Ti18  1  0.00302806  0.49816725  0.50117357  1
  Ti  Ti19  1  0.00111369  0.74899524  0.74995378  1
  Ti  Ti20  1  0.25008764  0.49896733  0.75121793  1
  Ti  Ti21  1  0.75143303  0.25375566  0.99861995  1
  Ti  Ti22  1  0.49794914  0.99898861  0.50325549  1
  Ti  Ti23  1  0.49586262  0.25150053  0.74984446  1
  Ti  Ti24  1  0.75003125  0.99855364  0.74887637  1
  Ti  Ti25  1  0.49719064  0.50118690  0.99877329  1
  Ti  Ti26  1  0.49904845  0.74639204  0.24955505  1
  Ti  Ti27  1  0.74959775  0.50096183  0.24881409  1
  Ti  Ti28  1  0.74839359  0.74623452  0.99834953  1
  Ti  Ti29  1  0.49805915  0.50148816  0.50109483  1
  Ti  Ti30  1  0.49908880  0.74898954  0.74992005  1
  Ti  Ti31  1  0.74889598  0.74918596  0.50279536  1
  C  C32  1  0.24363585  0.25170023  0.24967350  1
  C  C33  1  0.24985442  0.00060243  0.99834489  1
  C  C34  1  0.00177988  0.25733970  0.99851808  1
  C  C35  1  0.00701385  0.00569934  0.25603892  1
  C  C36  1  0.24963945  0.25105936  0.75017384  1
  C  C37  1  0.24999527  0.00602813  0.50170172  1
  C  C38  1  0.00731916  0.25119350  0.50166747  1
  C  C39  1  0.00169324  0.00035114  0.74340879  1
  C  C40  1  0.25598127  0.74806397  0.24404582  1
  C  C41  1  0.24991228  0.49967935  0.99901417  1
  C  C42  1  0.00081452  0.74266344  0.99299379  1
  C  C43  1  0.00178480  0.49349452  0.24980301  1
  C  C44  1  0.25046468  0.74908855  0.75596838  1
  C  C45  1  0.25006862  0.49414167  0.50084188  1
  C  C46  1  0.99533854  0.74885942  0.50700734  1
  C  C47  1  0.00706775  0.49940284  0.75003562  1
  C  C48  1  0.75572580  0.25697579  0.24413872  1
  C  C49  1  0.74986043  0.99922362  0.99312361  1
  C  C50  1  0.49798322  0.25734292  0.99300064  1
  C  C51  1  0.49277179  0.99430353  0.25599565  1
  C  C52  1  0.75056573  0.24508391  0.75643446  1
  C  C53  1  0.74992329  0.99393787  0.50739392  1
  C  C54  1  0.49311361  0.25127137  0.50700523  1
  C  C55  1  0.49834877  0.99977095  0.74341472  1
  C  C56  1  0.74379217  0.74258549  0.24955598  1
  C  C57  1  0.74992733  0.50021336  0.00521407  1
  C  C58  1  0.49912729  0.74264593  0.99844411  1
  C  C59  1  0.49835973  0.50628889  0.24972117  1
  C  C60  1  0.74950828  0.75496811  0.75035949  1
  C  C61  1  0.74998437  0.50603157  0.49519864  1
  C  C62  1  0.50522419  0.74893332  0.50161367  1
  C  C63  1  0.49313172  0.50058441  0.75002713  1
