# generated using pymatgen
data_ZrTiC2
_symmetry_space_group_name_H-M   'P 1'
_cell_length_a   9.09357928
_cell_length_b   9.07103944
_cell_length_c   9.07489895
_cell_angle_alpha   90.00708250
_cell_angle_beta   90.00396876
_cell_angle_gamma   89.99585692
_symmetry_Int_Tables_number   1
_chemical_formula_structural   ZrTiC2
_chemical_formula_sum   'Zr16 Ti16 C32'
_cell_volume   748.57221841
_cell_formula_units_Z   16
loop_
 _symmetry_equiv_pos_site_id
 _symmetry_equiv_pos_as_xyz
  1  'x, y, z'
loop_
 _atom_site_type_symbol
 _atom_site_label
 _atom_site_symmetry_multiplicity
 _atom_site_fract_x
 _atom_site_fract_y
 _atom_site_fract_z
 _atom_site_occupancy
  Zr  Zr0  1  0.00183455  0.99833167  0.00051830  1
  Zr  Zr1  1  0.25039614  0.24608334  0.00016665  1
  Zr  Zr2  1  0.24914474  0.24509564  0.49986685  1
  Zr  Zr3  1  0.00037639  0.50200855  0.00408038  1
  Zr  Zr4  1  0.00030555  0.49948571  0.49614972  1
  Zr  Zr5  1  0.00036624  0.75513783  0.75121237  1
  Zr  Zr6  1  0.25142748  0.50077370  0.75152228  1
  Zr  Zr7  1  0.25144611  0.75448103  0.49710973  1
  Zr  Zr8  1  0.49821676  0.24737252  0.24974162  1
  Zr  Zr9  1  0.74946964  0.99654623  0.24942159  1
  Zr  Zr10  1  0.74963029  0.24731021  0.99909986  1
  Zr  Zr11  1  0.75065661  0.24616828  0.50112585  1
  Zr  Zr12  1  0.49966382  0.50505229  0.00167551  1
  Zr  Zr13  1  0.49962489  0.50215818  0.49853691  1
  Zr  Zr14  1  0.74856377  0.50074318  0.75161849  1
  Zr  Zr15  1  0.74846271  0.75308636  0.49854107  1
  Ti  Ti16  1  0.00179477  0.24716960  0.25090654  1
  Ti  Ti17  1  0.25084956  0.99619828  0.24917912  1
  Ti  Ti18  1  0.00192989  0.00020524  0.49946836  1
  Ti  Ti19  1  0.00051560  0.24429483  0.74875621  1
  Ti  Ti20  1  0.25382117  0.99890716  0.75057776  1
  Ti  Ti21  1  0.00234466  0.75195963  0.24824994  1
  Ti  Ti22  1  0.24929831  0.50417616  0.24822574  1
  Ti  Ti23  1  0.25364071  0.75448018  0.00244174  1
  Ti  Ti24  1  0.49851712  0.99599484  0.99802322  1
  Ti  Ti25  1  0.49840385  0.99810699  0.50217793  1
  Ti  Ti26  1  0.49946941  0.24204094  0.75051078  1
  Ti  Ti27  1  0.74595700  0.99885157  0.75075775  1
  Ti  Ti28  1  0.49766101  0.75338271  0.24670262  1
  Ti  Ti29  1  0.75069018  0.50355457  0.24821847  1
  Ti  Ti30  1  0.74648712  0.75289086  0.00136769  1
  Ti  Ti31  1  0.49952216  0.75762212  0.75324012  1
  C  C32  1  0.24413807  0.24738236  0.24970174  1
  C  C33  1  0.25650052  0.99293351  0.00046063  1
  C  C34  1  0.00044950  0.24822650  0.00068027  1
  C  C35  1  0.00618755  0.99873864  0.25510008  1
  C  C36  1  0.25083437  0.24152978  0.75025812  1
  C  C37  1  0.25106185  0.99922506  0.49991752  1
  C  C38  1  0.00041289  0.24205223  0.49940488  1
  C  C39  1  0.00094984  0.00574914  0.74484414  1
  C  C40  1  0.25084007  0.75230496  0.24340449  1
  C  C41  1  0.25058488  0.50663109  0.00690581  1
  C  C42  1  0.00091133  0.75170551  0.00678484  1
  C  C43  1  0.00108101  0.50204456  0.24969288  1
  C  C44  1  0.25670843  0.75833689  0.75598112  1
  C  C45  1  0.25020466  0.50085048  0.49338389  1
  C  C46  1  0.00049656  0.75769420  0.49366135  1
  C  C47  1  0.00022870  0.49553889  0.75029373  1
  C  C48  1  0.75527365  0.25332279  0.24974789  1
  C  C49  1  0.74388402  0.99290761  0.99470180  1
  C  C50  1  0.49954833  0.24250554  0.99424630  1
  C  C51  1  0.49365381  0.99280663  0.24938554  1
  C  C52  1  0.74901449  0.24177455  0.75032372  1
  C  C53  1  0.74882586  0.99917039  0.50546334  1
  C  C54  1  0.49947887  0.24194147  0.50564908  1
  C  C55  1  0.49924193  0.99881668  0.75073109  1
  C  C56  1  0.74890136  0.74563356  0.24336920  1
  C  C57  1  0.74946551  0.50671730  0.00658002  1
  C  C58  1  0.49930366  0.75812065  0.00060419  1
  C  C59  1  0.49886507  0.50704928  0.24936248  1
  C  C60  1  0.74338350  0.75783541  0.75617032  1
  C  C61  1  0.74974706  0.50074484  0.49371499  1
  C  C62  1  0.49954529  0.75837253  0.49958470  1
  C  C63  1  0.49978914  0.50166658  0.75069874  1
