# generated using pymatgen
data_Hf11Ti5C16
_symmetry_space_group_name_H-M   'P 1'
_cell_length_a   9.12345578
_cell_length_b   9.11985976
_cell_length_c   4.56848010
_cell_angle_alpha   90.00000000
_cell_angle_beta   90.00000000
_cell_angle_gamma   89.90300544
_symmetry_Int_Tables_number   1
_chemical_formula_structural   Hf11Ti5C16
_chemical_formula_sum   'Hf11 Ti5 C16'
_cell_volume   380.11818470
_cell_formula_units_Z   1
loop_
 _symmetry_equiv_pos_site_id
 _symmetry_equiv_pos_as_xyz
  1  'x, y, z'
loop_
 _atom_site_type_symbol
 _atom_site_label
 _atom_site_symmetry_multiplicity
 _atom_site_fract_x
 _atom_site_fract_y
 _atom_site_fract_z
 _atom_site_occupancy
  Hf  Hf0  1  0.99910202  0.99787722  0.00000000  1
  Hf  Hf1  1  0.24757346  0.25228469  0.00000000  1
  Hf  Hf2  1  0.75126725  0.99605662  0.50000000  1
  Hf  Hf3  1  0.50103787  0.99607150  0.00000000  1
  Hf  Hf4  1  0.49884970  0.25165010  0.50000000  1
  Hf  Hf5  1  0.75234971  0.25048165  0.00000000  1
  Hf  Hf6  1  0.75145590  0.50388928  0.50000000  1
  Hf  Hf7  1  0.24861678  0.99783052  0.50000000  1
  Hf  Hf8  1  0.49926071  0.50383168  0.00000000  1
  Hf  Hf9  1  0.00092809  0.50197046  0.00000000  1
  Hf  Hf10  1  0.24946917  0.74765120  0.00000000  1
  Ti  Ti11  1  0.00107361  0.25191004  0.50000000  1
  Ti  Ti12  1  0.99881732  0.74836918  0.50000000  1
  Ti  Ti13  1  0.24820667  0.50259494  0.50000000  1
  Ti  Ti14  1  0.50118675  0.74847883  0.50000000  1
  Ti  Ti15  1  0.75072091  0.74932774  0.00000000  1
  C  C16  1  0.99980838  0.99795225  0.50000000  1
  C  C17  1  0.00015213  0.25074571  0.00000000  1
  C  C18  1  0.24931418  0.99864966  0.00000000  1
  C  C19  1  0.24485655  0.25452008  0.50000000  1
  C  C20  1  0.00433373  0.50179145  0.50000000  1
  C  C21  1  0.99572968  0.74930711  0.00000000  1
  C  C22  1  0.24935649  0.50108930  0.00000000  1
  C  C23  1  0.24923771  0.74454554  0.50000000  1
  C  C24  1  0.50019151  0.99443535  0.50000000  1
  C  C25  1  0.49976365  0.25079665  0.00000000  1
  C  C26  1  0.75059549  0.99444556  0.00000000  1
  C  C27  1  0.75479305  0.25060701  0.50000000  1
  C  C28  1  0.49638068  0.50604895  0.50000000  1
  C  C29  1  0.50406488  0.74939731  0.00000000  1
  C  C30  1  0.75074043  0.50584537  0.00000000  1
  C  C31  1  0.75076556  0.74954707  0.50000000  1
