# generated using pymatgen
data_Cr(FeNi)2
_symmetry_space_group_name_H-M   'P 1'
_cell_length_a   5.61108974
_cell_length_b   5.54892415
_cell_length_c   6.99678203
_cell_angle_alpha   90.16992239
_cell_angle_beta   90.04766385
_cell_angle_gamma   90.20343389
_symmetry_Int_Tables_number   1
_chemical_formula_structural   Cr(FeNi)2
_chemical_formula_sum   'Cr4 Fe8 Ni8'
_cell_volume   217.84597787
_cell_formula_units_Z   4
loop_
 _symmetry_equiv_pos_site_id
 _symmetry_equiv_pos_as_xyz
  1  'x, y, z'
loop_
 _atom_site_type_symbol
 _atom_site_label
 _atom_site_symmetry_multiplicity
 _atom_site_fract_x
 _atom_site_fract_y
 _atom_site_fract_z
 _atom_site_occupancy
  Fe  Fe0  1  0.09728859  0.30449417  0.24861811  1
  Fe  Fe1  1  0.30188306  0.89728263  0.75390026  1
  Fe  Fe2  1  0.39984581  0.19473907  0.49751107  1
  Fe  Fe3  1  0.20682311  0.59627594  -0.00547715  1
  Fe  Fe4  1  0.30487763  0.89228656  0.24725994  1
  Fe  Fe5  1  0.40314801  0.20535015  0.00061197  1
  Fe  Fe6  1  0.48504182  0.49603822  0.25055699  1
  Fe  Fe7  1  0.59725853  0.80103815  0.49811931  1
  Ni  Ni8  1  0.70041159  0.10228009  0.25038545  1
  Ni  Ni9  1  0.79843229  0.40141237  0.50092719  1
  Ni  Ni10  1  0.90122056  0.70093251  0.74843216  1
  Ni  Ni11  1  0.59625548  0.80312132  0.00154135  1
  Ni  Ni12  1  0.80260837  0.40073037  -0.00023277  1
  Ni  Ni13  1  0.89886726  0.69978826  0.24970226  1
  Ni  Ni14  1  0.50156391  0.50072774  0.74918984  1
  Ni  Ni15  1  0.00006640  0.00013298  0.50235003  1
  Cr  Cr16  1  0.11380047  0.29678939  0.75827146  1
  Cr  Cr17  1  0.00209648  0.99691555  0.00036015  1
  Cr  Cr18  1  0.20905284  0.61216446  0.50026155  1
  Cr  Cr19  1  0.67945780  0.09750004  0.74771085  1
