# generated using pymatgen
data_Cr2Fe7Ni
_symmetry_space_group_name_H-M   'P 1'
_cell_length_a   5.61053279
_cell_length_b   5.58863221
_cell_length_c   7.24367685
_cell_angle_alpha   90.22338659
_cell_angle_beta   90.00819554
_cell_angle_gamma   89.72524181
_symmetry_Int_Tables_number   1
_chemical_formula_structural   Cr2Fe7Ni
_chemical_formula_sum   'Cr4 Fe14 Ni2'
_cell_volume   227.12262772
_cell_formula_units_Z   2
loop_
 _symmetry_equiv_pos_site_id
 _symmetry_equiv_pos_as_xyz
  1  'x, y, z'
loop_
 _atom_site_type_symbol
 _atom_site_label
 _atom_site_symmetry_multiplicity
 _atom_site_fract_x
 _atom_site_fract_y
 _atom_site_fract_z
 _atom_site_occupancy
  Fe  Fe0  1  0.09303853  0.29906899  0.24869870  1
  Fe  Fe1  1  0.29613788  0.90203766  0.74867939  1
  Fe  Fe2  1  0.39670824  0.20252196  0.49347233  1
  Fe  Fe3  1  0.19761484  0.59413865  0.00615574  1
  Fe  Fe4  1  0.30020757  0.90460204  0.24936481  1
  Fe  Fe5  1  0.40588006  0.20494924  0.00620506  1
  Fe  Fe6  1  0.49707889  0.49676718  0.25154955  1
  Fe  Fe7  1  0.60668291  0.79885768  0.49139280  1
  Fe  Fe8  1  0.70774151  0.09747151  0.24987438  1
  Fe  Fe9  1  0.80117488  0.39558548  0.49679737  1
  Fe  Fe10  1  0.90330640  0.70256170  0.74888478  1
  Fe  Fe11  1  0.59724040  0.79804536  0.00733383  1
  Fe  Fe12  1  0.80276141  0.39837289  0.00368435  1
  Fe  Fe13  1  0.90691157  0.70408478  0.25115370  1
  Ni  Ni14  1  0.50126206  0.50109690  0.74896234  1
  Ni  Ni15  1  0.99715843  0.00440083  0.49793912  1
  Cr  Cr16  1  0.10601874  0.30312143  0.74952711  1
  Cr  Cr17  1  0.00020648  0.99351863  0.01581085  1
  Cr  Cr18  1  0.19804519  0.60812372  0.48683902  1
  Cr  Cr19  1  0.68482398  0.09067339  0.74767479  1
