# generated using pymatgen
data_Cr(FeO2)2
_symmetry_space_group_name_H-M   'P 1'
_cell_length_a   8.49821956
_cell_length_b   8.49821956
_cell_length_c   8.49821956
_cell_angle_alpha   90.00000000
_cell_angle_beta   90.00000000
_cell_angle_gamma   90.00000000
_symmetry_Int_Tables_number   1
_chemical_formula_structural   Cr(FeO2)2
_chemical_formula_sum   'Cr8 Fe16 O32'
_cell_volume   613.73917046
_cell_formula_units_Z   8
loop_
 _symmetry_equiv_pos_site_id
 _symmetry_equiv_pos_as_xyz
  1  'x, y, z'
loop_
 _atom_site_type_symbol
 _atom_site_label
 _atom_site_symmetry_multiplicity
 _atom_site_fract_x
 _atom_site_fract_y
 _atom_site_fract_z
 _atom_site_occupancy
  Cr  Cr0  1  -0.00000009  -0.00000009  -0.00000308  1
  Cr  Cr1  1  -0.00000009  0.49999991  0.49999692  1
  Cr  Cr2  1  0.49999991  0.49999991  -0.00000308  1
  Cr  Cr3  1  0.49999991  -0.00000009  0.49999692  1
  Cr  Cr4  1  0.75000009  0.25000009  0.75000308  1
  Cr  Cr5  1  0.25000009  0.25000009  0.25000308  1
  Cr  Cr6  1  0.25000009  0.75000009  0.75000308  1
  Cr  Cr7  1  0.75000009  0.75000009  0.25000308  1
  Fe  Fe8  1  0.62500000  0.62500000  0.62500000  1
  Fe  Fe9  1  0.37500000  0.87500000  0.12500000  1
  Fe  Fe10  1  0.87500000  0.12500000  0.37500000  1
  Fe  Fe11  1  0.12500000  0.37500000  0.87500000  1
  Fe  Fe12  1  0.87500000  0.37500000  0.12500000  1
  Fe  Fe13  1  0.37500000  0.12500000  0.87500000  1
  Fe  Fe14  1  0.12500000  0.87500000  0.37500000  1
  Fe  Fe15  1  0.62500000  0.12500000  0.12500000  1
  Fe  Fe16  1  0.37500000  0.37500000  0.62500000  1
  Fe  Fe17  1  0.87500000  0.62500000  0.87500000  1
  Fe  Fe18  1  0.87500000  0.87500000  0.62500000  1
  Fe  Fe19  1  0.37500000  0.62500000  0.37500000  1
  Fe  Fe20  1  0.12500000  0.62500000  0.12500000  1
  Fe  Fe21  1  0.62500000  0.37500000  0.37500000  1
  Fe  Fe22  1  0.62500000  0.87500000  0.87500000  1
  Fe  Fe23  1  0.12500000  0.12500000  0.62500000  1
  O  O24  1  0.37383308  0.37383308  0.37383236  1
  O  O25  1  0.62616659  0.12616659  0.87383184  1
  O  O26  1  0.12616621  0.87383396  0.62616516  1
  O  O27  1  0.87383396  0.62616621  0.12616516  1
  O  O28  1  0.12383341  0.62383341  0.37616816  1
  O  O29  1  0.87616692  0.87616692  0.87616764  1
  O  O30  1  0.62383379  0.37616604  0.12383484  1
  O  O31  1  0.37616604  0.12383379  0.62383484  1
  O  O32  1  0.62383341  0.12383341  0.37616816  1
  O  O33  1  0.12383379  0.37616604  0.62383484  1
  O  O34  1  0.37616604  0.62383379  0.12383484  1
  O  O35  1  0.12616659  0.62616659  0.87383184  1
  O  O36  1  0.62616621  0.87383396  0.12616516  1
  O  O37  1  0.87383396  0.12616621  0.62616516  1
  O  O38  1  0.37383308  0.87383308  0.87383236  1
  O  O39  1  0.62616659  0.62616659  0.37383184  1
  O  O40  1  0.12616621  0.37383396  0.12616516  1
  O  O41  1  0.12383341  0.12383341  0.87616816  1
  O  O42  1  0.87616692  0.37616692  0.37616764  1
  O  O43  1  0.62383379  0.87616604  0.62383484  1
  O  O44  1  0.62383341  0.62383341  0.87616816  1
  O  O45  1  0.12383379  0.87616604  0.12383484  1
  O  O46  1  0.12616659  0.12616659  0.37383184  1
  O  O47  1  0.62616621  0.37383396  0.62616516  1
  O  O48  1  0.87383308  0.37383308  0.87383236  1
  O  O49  1  0.37383396  0.62616621  0.62616516  1
  O  O50  1  0.37616692  0.87616692  0.37616764  1
  O  O51  1  0.87616604  0.12383379  0.12383484  1
  O  O52  1  0.87616604  0.62383379  0.62383484  1
  O  O53  1  0.37383396  0.12616621  0.12616516  1
  O  O54  1  0.87383308  0.87383308  0.37383236  1
  O  O55  1  0.37616692  0.37616692  0.87616764  1
