# generated using pymatgen
data_Hf5Sc3C8
_symmetry_space_group_name_H-M   'P 1'
_cell_length_a   9.30317086
_cell_length_b   9.33240920
_cell_length_c   4.65565841
_cell_angle_alpha   90.00000000
_cell_angle_beta   90.00000000
_cell_angle_gamma   90.00000000
_symmetry_Int_Tables_number   1
_chemical_formula_structural   Hf5Sc3C8
_chemical_formula_sum   'Hf10 Sc6 C16'
_cell_volume   404.20890635
_cell_formula_units_Z   2
loop_
 _symmetry_equiv_pos_site_id
 _symmetry_equiv_pos_as_xyz
  1  'x, y, z'
loop_
 _atom_site_type_symbol
 _atom_site_label
 _atom_site_symmetry_multiplicity
 _atom_site_fract_x
 _atom_site_fract_y
 _atom_site_fract_z
 _atom_site_occupancy
  Hf  Hf0  1  0.99999251  0.99929685  0.00000000  1
  Hf  Hf1  1  0.75000000  0.99861481  0.50000000  1
  Hf  Hf2  1  0.50000749  0.99929685  0.00000000  1
  Hf  Hf3  1  0.49870356  0.25071161  0.50000000  1
  Hf  Hf4  1  0.75000000  0.25070174  0.00000000  1
  Hf  Hf5  1  0.25000000  0.00122844  0.50000000  1
  Hf  Hf6  1  0.49982458  0.50033088  0.00000000  1
  Hf  Hf7  1  0.00017542  0.50033088  0.00000000  1
  Hf  Hf8  1  0.25000000  0.74975587  0.00000000  1
  Hf  Hf9  1  0.00129644  0.25071161  0.50000000  1
  Sc  Sc10  1  0.25000000  0.49973715  0.50000000  1
  Sc  Sc11  1  0.50110391  0.74911060  0.50000000  1
  Sc  Sc12  1  0.75000000  0.74921201  0.00000000  1
  Sc  Sc13  1  0.25000000  0.25095019  0.00000000  1
  Sc  Sc14  1  0.75000000  0.50178906  0.50000000  1
  Sc  Sc15  1  0.99889609  0.74911060  0.50000000  1
  C  C16  1  0.99998408  0.00316968  0.50000000  1
  C  C17  1  0.99712396  0.25026602  0.00000000  1
  C  C18  1  0.25000000  0.99679745  0.00000000  1
  C  C19  1  0.25000000  0.24600404  0.50000000  1
  C  C20  1  0.00008585  0.49516251  0.50000000  1
  C  C21  1  0.00358748  0.74881865  0.00000000  1
  C  C22  1  0.25000000  0.50480982  0.00000000  1
  C  C23  1  0.25000000  0.75505693  0.50000000  1
  C  C24  1  0.50001592  0.00316968  0.50000000  1
  C  C25  1  0.50287604  0.25026602  0.00000000  1
  C  C26  1  0.75000000  0.00207930  0.00000000  1
  C  C27  1  0.75000000  0.24642905  0.50000000  1
  C  C28  1  0.49991415  0.49516251  0.50000000  1
  C  C29  1  0.49641252  0.74881865  0.00000000  1
  C  C30  1  0.75000000  0.49728295  0.00000000  1
  C  C31  1  0.75000000  0.75581762  0.50000000  1
