# generated using pymatgen
data_Sc3Ta13C16
_symmetry_space_group_name_H-M   'P 1'
_cell_length_a   8.98726347
_cell_length_b   8.98726348
_cell_length_c   4.49414930
_cell_angle_alpha   90.00000000
_cell_angle_beta   90.00000000
_cell_angle_gamma   90.06192660
_symmetry_Int_Tables_number   1
_chemical_formula_structural   Sc3Ta13C16
_chemical_formula_sum   'Sc3 Ta13 C16'
_cell_volume   362.99629308
_cell_formula_units_Z   1
loop_
 _symmetry_equiv_pos_site_id
 _symmetry_equiv_pos_as_xyz
  1  'x, y, z'
loop_
 _atom_site_type_symbol
 _atom_site_label
 _atom_site_symmetry_multiplicity
 _atom_site_fract_x
 _atom_site_fract_y
 _atom_site_fract_z
 _atom_site_occupancy
  Ta  Ta0  1  0.00053037  0.99946963  0.00000000  1
  Ta  Ta1  1  0.24874263  0.99923614  0.50000000  1
  Ta  Ta2  1  0.00076386  0.75125737  0.50000000  1
  Ta  Ta3  1  0.24843322  0.50027444  0.50000000  1
  Ta  Ta4  1  0.50035166  0.99959033  0.00000000  1
  Ta  Ta5  1  0.75130049  0.24869951  0.00000000  1
  Ta  Ta6  1  0.49896639  0.50103361  0.00000000  1
  Ta  Ta7  1  0.75201155  0.49959956  0.50000000  1
  Ta  Ta8  1  0.75083971  0.75287024  0.00000000  1
  Ta  Ta9  1  0.49972556  0.75156678  0.50000000  1
  Ta  Ta10  1  0.24712976  0.24916029  0.00000000  1
  Ta  Ta11  1  0.50040044  0.24798845  0.50000000  1
  Ta  Ta12  1  0.00040967  0.49964834  0.00000000  1
  Sc  Sc13  1  0.24954353  0.75045647  0.00000000  1
  Sc  Sc14  1  0.99943528  0.24858255  0.50000000  1
  Sc  Sc15  1  0.75141745  0.00056472  0.50000000  1
  C  C16  1  0.00092414  0.25036934  0.00000000  1
  C  C17  1  0.00298210  0.99701790  0.50000000  1
  C  C18  1  0.25207045  0.24982154  0.50000000  1
  C  C19  1  0.25067292  0.00169475  0.00000000  1
  C  C20  1  0.99830525  0.74932708  0.00000000  1
  C  C21  1  0.99908098  0.50191585  0.50000000  1
  C  C22  1  0.24949714  0.75050286  0.50000000  1
  C  C23  1  0.25064261  0.49791662  0.00000000  1
  C  C24  1  0.49887218  0.25059311  0.00000000  1
  C  C25  1  0.49808415  0.00091902  0.50000000  1
  C  C26  1  0.74661856  0.25338144  0.50000000  1
  C  C27  1  0.74963066  0.99907586  0.00000000  1
  C  C28  1  0.50208338  0.74935739  0.00000000  1
  C  C29  1  0.50094855  0.49905145  0.50000000  1
  C  C30  1  0.75017846  0.74792955  0.50000000  1
  C  C31  1  0.74940689  0.50112782  0.00000000  1
