# generated using pymatgen
data_ZrTaTiNbRuC5
_symmetry_space_group_name_H-M   'P 1'
_cell_length_a   7.05643739
_cell_length_b   7.08740814
_cell_length_c   4.46912464
_cell_angle_alpha   90.00000000
_cell_angle_beta   90.00000000
_cell_angle_gamma   90.42218804
_symmetry_Int_Tables_number   1
_chemical_formula_structural   ZrTaTiNbRuC5
_chemical_formula_sum   'Zr2 Ta2 Ti2 Nb2 Ru2 C10'
_cell_volume   223.50313130
_cell_formula_units_Z   2
loop_
 _symmetry_equiv_pos_site_id
 _symmetry_equiv_pos_as_xyz
  1  'x, y, z'
loop_
 _atom_site_type_symbol
 _atom_site_label
 _atom_site_symmetry_multiplicity
 _atom_site_fract_x
 _atom_site_fract_y
 _atom_site_fract_z
 _atom_site_occupancy
  C  C0  1  0.29604127  0.89017542  0.00000000  1
  C  C1  1  0.51171806  0.50640874  0.00000000  1
  C  C2  1  0.39553222  0.20432594  0.50000000  1
  C  C3  1  0.09232230  0.31229337  0.00000000  1
  C  C4  1  0.98354710  0.98681947  0.50000000  1
  C  C5  1  0.70516347  0.10272325  0.00000000  1
  C  C6  1  0.61036113  0.80386323  0.50000000  1
  C  C7  1  0.19924034  0.59138455  0.50000000  1
  C  C8  1  0.90685577  0.71229349  0.00000000  1
  C  C9  1  0.79780092  0.38612890  0.50000000  1
  Zr  Zr10  1  0.28773800  0.89831169  0.50000000  1
  Zr  Zr11  1  0.40207221  0.19998792  0.00000000  1
  Ta  Ta12  1  0.18885387  0.60358471  0.00000000  1
  Ta  Ta13  1  0.08980223  0.30289463  0.50000000  1
  Ti  Ti14  1  0.70488521  0.09347792  0.50000000  1
  Ti  Ti15  1  0.80112161  0.39212898  0.00000000  1
  Nb  Nb16  1  0.51874265  0.50305460  0.50000000  1
  Nb  Nb17  1  0.62379948  0.79992252  0.00000000  1
  Ru  Ru18  1  0.89348240  0.68226889  0.50000000  1
  Ru  Ru19  1  0.99091974  0.02795178  0.00000000  1
