# generated using pymatgen
data_ZrTaTiNbPtC5
_symmetry_space_group_name_H-M   'P 1'
_cell_length_a   7.03832268
_cell_length_b   7.13515439
_cell_length_c   4.54587386
_cell_angle_alpha   90.00000000
_cell_angle_beta   90.00000000
_cell_angle_gamma   90.84116738
_symmetry_Int_Tables_number   1
_chemical_formula_structural   ZrTaTiNbPtC5
_chemical_formula_sum   'Zr2 Ta2 Ti2 Nb2 Pt2 C10'
_cell_volume   228.26699637
_cell_formula_units_Z   2
loop_
 _symmetry_equiv_pos_site_id
 _symmetry_equiv_pos_as_xyz
  1  'x, y, z'
loop_
 _atom_site_type_symbol
 _atom_site_label
 _atom_site_symmetry_multiplicity
 _atom_site_fract_x
 _atom_site_fract_y
 _atom_site_fract_z
 _atom_site_occupancy
  C  C0  1  0.29838881  0.88772838  0.00000000  1
  C  C1  1  0.51383629  0.50581586  0.00000000  1
  C  C2  1  0.39105123  0.20193250  0.50000000  1
  C  C3  1  0.09440430  0.31294669  0.00000000  1
  C  C4  1  0.97920078  0.99287409  0.50000000  1
  C  C5  1  0.70395388  0.10546475  0.00000000  1
  C  C6  1  0.60690523  0.80640487  0.50000000  1
  C  C7  1  0.19628948  0.58987314  0.50000000  1
  C  C8  1  0.91470117  0.71400113  0.00000000  1
  C  C9  1  0.79668510  0.38734139  0.50000000  1
  Zr  Zr10  1  0.28219426  0.89866226  0.50000000  1
  Zr  Zr11  1  0.39784020  0.19845506  0.00000000  1
  Ta  Ta12  1  0.20678381  0.59825646  0.00000000  1
  Ta  Ta13  1  0.09141486  0.30794896  0.50000000  1
  Ti  Ti14  1  0.69688364  0.09457288  0.50000000  1
  Ti  Ti15  1  0.79577201  0.38701940  0.00000000  1
  Nb  Nb16  1  0.51843684  0.50141798  0.50000000  1
  Nb  Nb17  1  0.62520435  0.79828704  0.00000000  1
  Pt  Pt18  1  0.89006849  0.69222030  0.50000000  1
  Pt  Pt19  1  -0.00001473  0.01877685  0.00000000  1
