# generated using pymatgen
data_ZrTaTiNbAuC5
_symmetry_space_group_name_H-M   'P 1'
_cell_length_a   7.07078702
_cell_length_b   7.41522628
_cell_length_c   4.50966479
_cell_angle_alpha   90.00000000
_cell_angle_beta   90.00000000
_cell_angle_gamma   87.51755248
_symmetry_Int_Tables_number   1
_chemical_formula_structural   ZrTaTiNbAuC5
_chemical_formula_sum   'Zr2 Ta2 Ti2 Nb2 Au2 C10'
_cell_volume   236.22652717
_cell_formula_units_Z   2
loop_
 _symmetry_equiv_pos_site_id
 _symmetry_equiv_pos_as_xyz
  1  'x, y, z'
loop_
 _atom_site_type_symbol
 _atom_site_label
 _atom_site_symmetry_multiplicity
 _atom_site_fract_x
 _atom_site_fract_y
 _atom_site_fract_z
 _atom_site_occupancy
  C  C0  1  0.30098451  0.89230789  0.00000000  1
  C  C1  1  0.50652304  0.49850724  0.00000000  1
  C  C2  1  0.39488519  0.20843043  0.50000000  1
  C  C3  1  0.09801338  0.33425556  0.00000000  1
  C  C4  1  0.99864589  0.04329891  0.50000000  1
  C  C5  1  0.70132437  0.09040096  0.00000000  1
  C  C6  1  0.60473684  0.79926839  0.50000000  1
  C  C7  1  0.20205878  0.60661517  0.50000000  1
  C  C8  1  0.89018500  0.66741263  0.00000000  1
  C  C9  1  0.79190478  0.37443968  0.50000000  1
  Zr  Zr10  1  0.28612127  0.91124823  0.50000000  1
  Zr  Zr11  1  0.39902532  0.20484025  0.00000000  1
  Ta  Ta12  1  0.19437587  0.61598551  0.00000000  1
  Ta  Ta13  1  0.09396365  0.32879127  0.50000000  1
  Ti  Ti14  1  0.70844277  0.08192298  0.50000000  1
  Ti  Ti15  1  0.79664503  0.36874259  0.00000000  1
  Nb  Nb16  1  0.51613380  0.48784134  0.50000000  1
  Nb  Nb17  1  0.61779094  0.77849137  0.00000000  1
  Au  Au18  1  0.89802717  0.70109853  0.50000000  1
  Au  Au19  1  0.00021240  0.00610110  0.00000000  1
