# generated using pymatgen
data_Al3MoN4
_symmetry_space_group_name_H-M   'P 1'
_cell_length_a   6.42982850
_cell_length_b   6.42982851
_cell_length_c   5.19896468
_cell_angle_alpha   89.61405596
_cell_angle_beta   90.38594403
_cell_angle_gamma   123.39520949
_symmetry_Int_Tables_number   1
_chemical_formula_structural   Al3MoN4
_chemical_formula_sum   'Al6 Mo2 N8'
_cell_volume   179.44617971
_cell_formula_units_Z   2
loop_
 _symmetry_equiv_pos_site_id
 _symmetry_equiv_pos_as_xyz
  1  'x, y, z'
loop_
 _atom_site_type_symbol
 _atom_site_label
 _atom_site_symmetry_multiplicity
 _atom_site_fract_x
 _atom_site_fract_y
 _atom_site_fract_z
 _atom_site_occupancy
  Al  Al0  1  0.17031522  0.32968478  0.50151224  1
  Al  Al1  1  0.33561797  0.16438203  0.00202737  1
  Al  Al2  1  0.16410956  0.83589044  0.49906873  1
  Al  Al3  1  0.66410956  0.33589044  0.49906873  1
  Al  Al4  1  0.67031522  0.82968478  0.50151224  1
  Al  Al5  1  0.83561797  0.66438203  0.00202737  1
  N  N6  1  0.18321359  0.31678641  0.86446482  1
  N  N7  1  0.33119913  0.16880087  0.37139636  1
  N  N8  1  0.16050272  0.83949728  0.86704077  1
  N  N9  1  0.32979211  0.67020789  0.40980554  1
  N  N10  1  0.66050272  0.33949728  0.86704077  1
  N  N11  1  0.82979211  0.17020789  0.40980554  1
  N  N12  1  0.68321359  0.81678641  0.86446482  1
  N  N13  1  0.83119913  0.66880087  0.37139636  1
  Mo  Mo14  1  0.32524971  0.67475029  0.01268416  1
  Mo  Mo15  1  0.82524971  0.17475029  0.01268416  1
