# generated using pymatgen
data_Al3ReN4
_symmetry_space_group_name_H-M   'P 1'
_cell_length_a   6.39390128
_cell_length_b   6.39390129
_cell_length_c   5.20967925
_cell_angle_alpha   90.14317629
_cell_angle_beta   89.85682373
_cell_angle_gamma   123.55494744
_symmetry_Int_Tables_number   1
_chemical_formula_structural   Al3ReN4
_chemical_formula_sum   'Al6 Re2 N8'
_cell_volume   177.48911486
_cell_formula_units_Z   2
loop_
 _symmetry_equiv_pos_site_id
 _symmetry_equiv_pos_as_xyz
  1  'x, y, z'
loop_
 _atom_site_type_symbol
 _atom_site_label
 _atom_site_symmetry_multiplicity
 _atom_site_fract_x
 _atom_site_fract_y
 _atom_site_fract_z
 _atom_site_occupancy
  Al  Al0  1  0.17182394  0.32817606  0.50474278  1
  Al  Al1  1  0.33709949  0.16290051  0.00568509  1
  Al  Al2  1  0.16544487  0.83455513  0.49367856  1
  Al  Al3  1  0.66544487  0.33455513  0.49367856  1
  Al  Al4  1  0.67182394  0.82817606  0.50474278  1
  Al  Al5  1  0.83709949  0.66290051  0.00568509  1
  N  N6  1  0.18163025  0.31836975  0.87194738  1
  N  N7  1  0.33090220  0.16909780  0.37224534  1
  N  N8  1  0.15884274  0.84115726  0.86011974  1
  N  N9  1  0.33203326  0.66796674  0.40812736  1
  N  N10  1  0.65884274  0.34115726  0.86011974  1
  N  N11  1  0.83203326  0.16796674  0.40812736  1
  N  N12  1  0.68163025  0.81836975  0.87194738  1
  N  N13  1  0.83090220  0.66909780  0.37224534  1
  Re  Re14  1  0.32222325  0.67777675  0.01145375  1
  Re  Re15  1  0.82222325  0.17777675  0.01145375  1
