# generated using pymatgen
data_Y3TiN4
_symmetry_space_group_name_H-M   'P 1'
_cell_length_a   7.77983863
_cell_length_b   7.77983862
_cell_length_c   4.77572336
_cell_angle_alpha   90.00051638
_cell_angle_beta   89.99948364
_cell_angle_gamma   119.98073393
_symmetry_Int_Tables_number   1
_chemical_formula_structural   Y3TiN4
_chemical_formula_sum   'Y6 Ti2 N8'
_cell_volume   250.37747240
_cell_formula_units_Z   2
loop_
 _symmetry_equiv_pos_site_id
 _symmetry_equiv_pos_as_xyz
  1  'x, y, z'
loop_
 _atom_site_type_symbol
 _atom_site_label
 _atom_site_symmetry_multiplicity
 _atom_site_fract_x
 _atom_site_fract_y
 _atom_site_fract_z
 _atom_site_occupancy
  Y  Y0  1  0.16260841  0.33739153  0.44094092  1
  Y  Y1  1  0.33547727  0.16452279  0.94098910  1
  Y  Y2  1  0.17199646  0.82800356  0.44098154  1
  Y  Y3  1  0.67199646  0.32800356  0.44098154  1
  Y  Y4  1  0.66260841  0.83739153  0.44094092  1
  Y  Y5  1  0.83547727  0.66452279  0.94098910  1
  N  N6  1  0.14680879  0.35319123  0.94093592  1
  N  N7  1  0.33354191  0.16645809  0.44099298  1
  N  N8  1  0.18289937  0.81710065  0.94097729  1
  N  N9  1  0.33468692  0.66531308  0.44167200  1
  N  N10  1  0.68289937  0.31710065  0.94097729  1
  N  N11  1  0.83468692  0.16531308  0.44167200  1
  N  N12  1  0.64680879  0.85319123  0.94093592  1
  N  N13  1  0.83354191  0.66645809  0.44099298  1
  Ti  Ti14  1  0.33198086  0.66801908  0.94051027  1
  Ti  Ti15  1  0.83198086  0.16801908  0.94051027  1
