# generated using pymatgen
data_TiNb3N4
_symmetry_space_group_name_H-M   'P 1'
_cell_length_a   7.28972204
_cell_length_b   7.28972204
_cell_length_c   4.35535396
_cell_angle_alpha   89.99925437
_cell_angle_beta   90.00074564
_cell_angle_gamma   120.55258675
_symmetry_Int_Tables_number   1
_chemical_formula_structural   TiNb3N4
_chemical_formula_sum   'Ti2 Nb6 N8'
_cell_volume   199.31075839
_cell_formula_units_Z   2
loop_
 _symmetry_equiv_pos_site_id
 _symmetry_equiv_pos_as_xyz
  1  'x, y, z'
loop_
 _atom_site_type_symbol
 _atom_site_label
 _atom_site_symmetry_multiplicity
 _atom_site_fract_x
 _atom_site_fract_y
 _atom_site_fract_z
 _atom_site_occupancy
  Nb  Nb0  1  0.16747812  0.33252184  0.44100821  1
  Nb  Nb1  1  0.32894238  0.17105763  0.94099640  1
  Nb  Nb2  1  0.16528703  0.83471298  0.44099263  1
  Nb  Nb3  1  0.66528703  0.33471298  0.44099263  1
  Nb  Nb4  1  0.66747812  0.83252184  0.44100821  1
  Nb  Nb5  1  0.82894238  0.67105763  0.94099640  1
  N  N6  1  0.16154761  0.33845241  0.94099493  1
  N  N7  1  0.33342542  0.16657457  0.44099815  1
  N  N8  1  0.17394386  0.82605615  0.94101165  1
  N  N9  1  0.33201001  0.66798998  0.44099802  1
  N  N10  1  0.67394386  0.32605615  0.94101165  1
  N  N11  1  0.83201001  0.16798998  0.44099802  1
  N  N12  1  0.66154761  0.83845241  0.94099493  1
  N  N13  1  0.83342542  0.66657457  0.44099815  1
  Ti  Ti14  1  0.33736556  0.66263445  0.94100000  1
  Ti  Ti15  1  0.83736556  0.16263445  0.94100000  1
