# generated using pymatgen
data_Hf3TiN4
_symmetry_space_group_name_H-M   'P 1'
_cell_length_a   7.39291686
_cell_length_b   7.39291685
_cell_length_c   4.46283803
_cell_angle_alpha   89.99141695
_cell_angle_beta   90.00858312
_cell_angle_gamma   120.06696006
_symmetry_Int_Tables_number   1
_chemical_formula_structural   Hf3TiN4
_chemical_formula_sum   'Hf6 Ti2 N8'
_cell_volume   211.09598119
_cell_formula_units_Z   2
loop_
 _symmetry_equiv_pos_site_id
 _symmetry_equiv_pos_as_xyz
  1  'x, y, z'
loop_
 _atom_site_type_symbol
 _atom_site_label
 _atom_site_symmetry_multiplicity
 _atom_site_fract_x
 _atom_site_fract_y
 _atom_site_fract_z
 _atom_site_occupancy
  Hf  Hf0  1  0.16478165  0.33521835  0.44099640  1
  Hf  Hf1  1  0.33150095  0.16849905  0.94100786  1
  Hf  Hf2  1  0.16857956  0.83142044  0.44098946  1
  Hf  Hf3  1  0.66857956  0.33142044  0.44098946  1
  Hf  Hf4  1  0.66478165  0.83521835  0.44099640  1
  Hf  Hf5  1  0.83150095  0.66849905  0.94100786  1
  N  N6  1  0.16172580  0.33827420  0.94102061  1
  N  N7  1  0.33372036  0.16627964  0.44098574  1
  N  N8  1  0.17170695  0.82829305  0.94101063  1
  N  N9  1  0.33273729  0.66726271  0.44099710  1
  N  N10  1  0.67170695  0.32829305  0.94101063  1
  N  N11  1  0.83273729  0.16726271  0.44099710  1
  N  N12  1  0.66172580  0.83827420  0.94102061  1
  N  N13  1  0.83372036  0.66627964  0.44098574  1
  Ti  Ti14  1  0.33524745  0.66475255  0.94099219  1
  Ti  Ti15  1  0.83524745  0.16475255  0.94099219  1
