# generated using pymatgen
data_AlFeCoNiAg
_symmetry_space_group_name_H-M   'P 1'
_cell_length_a   5.80398785
_cell_length_b   5.92202103
_cell_length_c   7.54004134
_cell_angle_alpha   90.49191083
_cell_angle_beta   89.86513402
_cell_angle_gamma   88.66431837
_symmetry_Int_Tables_number   1
_chemical_formula_structural   AlFeCoNiAg
_chemical_formula_sum   'Al4 Fe4 Co4 Ni4 Ag4'
_cell_volume   259.08049857
_cell_formula_units_Z   4
loop_
 _symmetry_equiv_pos_site_id
 _symmetry_equiv_pos_as_xyz
  1  'x, y, z'
loop_
 _atom_site_type_symbol
 _atom_site_label
 _atom_site_symmetry_multiplicity
 _atom_site_fract_x
 _atom_site_fract_y
 _atom_site_fract_z
 _atom_site_occupancy
  Al  Al0  1  0.09147474  0.27899225  0.73951261  1
  Al  Al1  1  0.19982939  0.59051548  0.01014113  1
  Al  Al2  1  0.30005883  0.89965879  0.26306126  1
  Al  Al3  1  0.43490112  0.18766737  0.99582135  1
  Co  Co4  1  0.36116758  0.88761548  0.75847324  1
  Co  Co5  1  0.48585919  0.49041023  0.78004695  1
  Co  Co6  1  0.61115536  0.80250372  0.49103839  1
  Co  Co7  1  0.87751205  0.69691718  0.24643030  1
  Ag  Ag8  1  0.00713741  0.00257636  0.99904749  1
  Ag  Ag9  1  0.20475257  0.61279527  0.50156369  1
  Ag  Ag10  1  0.39846366  0.19659056  0.50080835  1
  Ag  Ag11  1  0.88365827  0.70067608  0.74925588  1
  Fe  Fe12  1  0.70832652  0.08951427  0.24826693  1
  Fe  Fe13  1  0.79180675  0.40710886  0.47467670  1
  Fe  Fe14  1  0.57795063  0.78842295  0.01355934  1
  Fe  Fe15  1  0.78731795  0.42257534  0.01618258  1
  Ni  Ni16  1  0.97589032  0.01366566  0.48471398  1
  Ni  Ni17  1  0.08999392  0.30751184  0.24471176  1
  Ni  Ni18  1  0.70939762  0.12456512  0.73951054  1
  Ni  Ni19  1  0.50334607  0.49971727  0.24317756  1
