# generated using pymatgen
data_AlFeCoNiRu
_symmetry_space_group_name_H-M   'P 1'
_cell_length_a   6.33097483
_cell_length_b   7.80065836
_cell_length_c   6.26012901
_cell_angle_alpha   73.50287821
_cell_angle_beta   108.28547779
_cell_angle_gamma   124.28450769
_symmetry_Int_Tables_number   1
_chemical_formula_structural   AlFeCoNiRu
_chemical_formula_sum   'Al4 Fe4 Co4 Ni4 Ru4'
_cell_volume   240.26979436
_cell_formula_units_Z   4
loop_
 _symmetry_equiv_pos_site_id
 _symmetry_equiv_pos_as_xyz
  1  'x, y, z'
loop_
 _atom_site_type_symbol
 _atom_site_label
 _atom_site_symmetry_multiplicity
 _atom_site_fract_x
 _atom_site_fract_y
 _atom_site_fract_z
 _atom_site_occupancy
  Al  Al0  1  0.78570836  0.02517475  0.25080534  1
  Al  Al1  1  0.76457246  0.39565903  0.45524718  1
  Al  Al2  1  0.49802391  0.59331571  0.30943847  1
  Al  Al3  1  0.22498138  0.79983461  0.15401590  1
  Co  Co4  1  0.74585858  0.20052941  0.85333849  1
  Co  Co5  1  0.99524123  0.99951562  0.99356591  1
  Co  Co6  1  0.01824140  0.41293955  0.19737773  1
  Co  Co7  1  0.01059045  0.20473042  0.60299394  1
  Fe  Fe8  1  0.50118601  0.20225395  0.08646760  1
  Fe  Fe9  1  0.75522543  0.80688565  0.66615872  1
  Fe  Fe10  1  0.25648133  0.59420619  0.56308281  1
  Fe  Fe11  1  0.99572238  0.59658855  0.80058272  1
  Ni  Ni12  1  0.26336140  0.20508372  0.34289011  1
  Ni  Ni13  1  0.50299521  0.40197664  0.69031380  1
  Ni  Ni14  1  0.23278248  0.38511829  0.94632126  1
  Ni  Ni15  1  0.98498766  0.79312639  0.40612255  1
  Ru  Ru16  1  0.72586171  0.58055491  0.03790258  1
  Ru  Ru17  1  0.50217154  0.99897252  0.49613833  1
  Ru  Ru18  1  0.24404426  0.00924573  0.74269779  1
  Ru  Ru19  1  0.49196283  0.79428835  0.90453876  1
