# generated using pymatgen
data_MnFeCoCuNi
_symmetry_space_group_name_H-M   'P 1'
_cell_length_a   9.02367147
_cell_length_b   9.02367147
_cell_length_c   7.20377011
_cell_angle_alpha   90.32216156
_cell_angle_beta   89.67783845
_cell_angle_gamma   156.62331460
_symmetry_Int_Tables_number   1
_chemical_formula_structural   MnFeCoCuNi
_chemical_formula_sum   'Mn4 Fe4 Co4 Cu4 Ni4'
_cell_volume   232.73563743
_cell_formula_units_Z   4
loop_
 _symmetry_equiv_pos_site_id
 _symmetry_equiv_pos_as_xyz
  1  'x, y, z'
loop_
 _atom_site_type_symbol
 _atom_site_label
 _atom_site_symmetry_multiplicity
 _atom_site_fract_x
 _atom_site_fract_y
 _atom_site_fract_z
 _atom_site_occupancy
  Co  Co0  1  0.09736406  0.90263594  0.25104624  1
  Co  Co1  1  0.30322978  0.69677022  0.25216181  1
  Co  Co2  1  0.00313741  0.99686259  0.50233955  1
  Co  Co3  1  0.79814183  0.20185817  0.48669150  1
  Cu  Cu4  1  0.29904928  0.70095072  0.74513643  1
  Cu  Cu5  1  0.70023263  0.29976737  0.74563069  1
  Cu  Cu6  1  0.59994348  0.40005652  0.50434053  1
  Cu  Cu7  1  0.50085542  0.49914458  0.25712020  1
  Fe  Fe8  1  0.20238905  0.79761095  0.48922783  1
  Fe  Fe9  1  0.40053294  0.59946706  0.00724728  1
  Fe  Fe10  1  0.99662445  0.00337555  0.00355438  1
  Fe  Fe11  1  0.90143982  0.09856018  0.26850344  1
  Mn  Mn12  1  0.89969913  0.10030087  0.73509568  1
  Mn  Mn13  1  0.69899745  0.30100255  0.24390387  1
  Mn  Mn14  1  0.60127727  0.39872273  0.99904174  1
  Mn  Mn15  1  0.79754255  0.20245745  0.00624651  1
  Ni  Ni16  1  0.09949396  0.90050604  0.75214197  1
  Ni  Ni17  1  0.49917224  0.50082776  0.74972793  1
  Ni  Ni18  1  0.40165105  0.59834895  0.49854475  1
  Ni  Ni19  1  0.19922620  0.80077380  0.00229771  1
