# generated using pymatgen
data_Ti15CrN16
_symmetry_space_group_name_H-M   'P 1'
_cell_length_a   7.03301288
_cell_length_b   7.03301288
_cell_length_c   8.42033919
_cell_angle_alpha   90.00000000
_cell_angle_beta   90.00000000
_cell_angle_gamma   120.00000000
_symmetry_Int_Tables_number   1
_chemical_formula_structural   Ti15CrN16
_chemical_formula_sum   'Ti15 Cr1 N16'
_cell_volume   360.69742629
_cell_formula_units_Z   1
loop_
 _symmetry_equiv_pos_site_id
 _symmetry_equiv_pos_as_xyz
  1  'x, y, z'
loop_
 _atom_site_type_symbol
 _atom_site_label
 _atom_site_symmetry_multiplicity
 _atom_site_fract_x
 _atom_site_fract_y
 _atom_site_fract_z
 _atom_site_occupancy
  Cr  Cr0  1  0.16666667  0.33333333  0.22061250  1
  Ti  Ti1  1  0.33187550  0.16812450  0.97437910  1
  Ti  Ti2  1  0.16666667  0.33333333  0.72069338  1
  Ti  Ti3  1  0.33191374  0.16808626  0.46643299  1
  Ti  Ti4  1  0.16424673  0.83212336  0.22052077  1
  Ti  Ti5  1  0.33187550  0.66375102  0.97437910  1
  Ti  Ti6  1  0.16764220  0.83382109  0.72057988  1
  Ti  Ti7  1  0.33191374  0.66382747  0.46643299  1
  Ti  Ti8  1  0.66787664  0.33575327  0.22052077  1
  Ti  Ti9  1  0.83624898  0.16812450  0.97437910  1
  Ti  Ti10  1  0.66617891  0.33235780  0.72057988  1
  Ti  Ti11  1  0.83617253  0.16808626  0.46643299  1
  Ti  Ti12  1  0.66787664  0.83212336  0.22052077  1
  Ti  Ti13  1  0.83333333  0.66666667  0.96661097  1
  Ti  Ti14  1  0.66617891  0.83382109  0.72057988  1
  Ti  Ti15  1  0.83333333  0.66666667  0.47389613  1
  N  N16  1  0.16666667  0.33333333  0.46871620  1
  N  N17  1  0.33441222  0.16558778  0.22046763  1
  N  N18  1  0.16666667  0.33333333  0.97243300  1
  N  N19  1  0.33323500  0.16676500  0.72051707  1
  N  N20  1  0.16709730  0.83354865  0.46965320  1
  N  N21  1  0.33441222  0.66882443  0.22046763  1
  N  N22  1  0.16710893  0.83355447  0.97146161  1
  N  N23  1  0.33323500  0.66647000  0.72051707  1
  N  N24  1  0.66645135  0.33290270  0.46965320  1
  N  N25  1  0.83117557  0.16558778  0.22046763  1
  N  N26  1  0.66644553  0.33289107  0.97146161  1
  N  N27  1  0.83353000  0.16676500  0.72051707  1
  N  N28  1  0.66645135  0.83354865  0.46965320  1
  N  N29  1  0.83333333  0.66666667  0.22051703  1
  N  N30  1  0.66644553  0.83355447  0.97146161  1
  N  N31  1  0.83333333  0.66666667  0.72048400  1
