# generated using pymatgen
data_ZrTi15N16
_symmetry_space_group_name_H-M   'P 1'
_cell_length_a   7.07749245
_cell_length_b   7.07749244
_cell_length_c   8.52087703
_cell_angle_alpha   90.00000000
_cell_angle_beta   90.00000000
_cell_angle_gamma   119.99999999
_symmetry_Int_Tables_number   1
_chemical_formula_structural   ZrTi15N16
_chemical_formula_sum   'Zr1 Ti15 N16'
_cell_volume   369.63557154
_cell_formula_units_Z   1
loop_
 _symmetry_equiv_pos_site_id
 _symmetry_equiv_pos_as_xyz
  1  'x, y, z'
loop_
 _atom_site_type_symbol
 _atom_site_label
 _atom_site_symmetry_multiplicity
 _atom_site_fract_x
 _atom_site_fract_y
 _atom_site_fract_z
 _atom_site_occupancy
  Zr  Zr0  1  0.16666667  0.33333333  0.22042683  1
  Ti  Ti1  1  0.33490969  0.16509031  0.96626546  1
  Ti  Ti2  1  0.16666667  0.33333333  0.72065927  1
  Ti  Ti3  1  0.33487708  0.16512292  0.47471040  1
  Ti  Ti4  1  0.16545283  0.83272641  0.22054090  1
  Ti  Ti5  1  0.33490969  0.66981939  0.96626546  1
  Ti  Ti6  1  0.16559687  0.83279843  0.72051023  1
  Ti  Ti7  1  0.33487708  0.66975415  0.47471040  1
  Ti  Ti8  1  0.66727359  0.33454717  0.22054090  1
  Ti  Ti9  1  0.83018061  0.16509031  0.96626546  1
  Ti  Ti10  1  0.66720157  0.33440313  0.72051023  1
  Ti  Ti11  1  0.83024585  0.16512292  0.47471040  1
  Ti  Ti12  1  0.66727359  0.83272641  0.22054090  1
  Ti  Ti13  1  0.83333333  0.66666667  0.97184590  1
  Ti  Ti14  1  0.66720157  0.83279843  0.72051023  1
  Ti  Ti15  1  0.83333333  0.66666667  0.46901762  1
  N  N16  1  0.16666667  0.33333333  0.47739819  1
  N  N17  1  0.34134654  0.15865346  0.22048330  1
  N  N18  1  0.16666667  0.33333333  0.96366366  1
  N  N19  1  0.33386356  0.16613644  0.72050419  1
  N  N20  1  0.16647063  0.83323531  0.47145289  1
  N  N21  1  0.34134654  0.68269309  0.22048330  1
  N  N22  1  0.16643960  0.83321980  0.96953745  1
  N  N23  1  0.33386356  0.66772712  0.72050419  1
  N  N24  1  0.66676469  0.33352937  0.47145289  1
  N  N25  1  0.81730691  0.15865346  0.22048330  1
  N  N26  1  0.66678020  0.33356040  0.96953745  1
  N  N27  1  0.83227288  0.16613644  0.72050419  1
  N  N28  1  0.66676469  0.83323531  0.47145289  1
  N  N29  1  0.83333333  0.66666667  0.22048089  1
  N  N30  1  0.66678020  0.83321980  0.96953745  1
  N  N31  1  0.83333333  0.66666667  0.72049321  1
