# generated using pymatgen
data_Ti3BN4
_symmetry_space_group_name_H-M   'P 1'
_cell_length_a   7.84694744
_cell_length_b   7.89668600
_cell_length_c   5.96170264
_cell_angle_alpha   90.95072813
_cell_angle_beta   88.37039494
_cell_angle_gamma   114.76911294
_symmetry_Int_Tables_number   1
_chemical_formula_structural   Ti3BN4
_chemical_formula_sum   'Ti12 B4 N16'
_cell_volume   335.29106201
_cell_formula_units_Z   4
loop_
 _symmetry_equiv_pos_site_id
 _symmetry_equiv_pos_as_xyz
  1  'x, y, z'
loop_
 _atom_site_type_symbol
 _atom_site_label
 _atom_site_symmetry_multiplicity
 _atom_site_fract_x
 _atom_site_fract_y
 _atom_site_fract_z
 _atom_site_occupancy
  Ti  Ti0  1  0.95518823  0.47869195  0.32047152  1
  Ti  Ti1  1  0.22867576  0.23784445  0.33731796  1
  Ti  Ti2  1  0.10098850  0.36233992  0.84329971  1
  Ti  Ti3  1  0.47912546  0.96825392  0.35463323  1
  Ti  Ti4  1  0.35095221  0.08608489  0.82327216  1
  Ti  Ti5  1  0.84239235  0.61029081  0.85507526  1
  Ti  Ti6  1  0.84249104  0.09490096  0.16598279  1
  Ti  Ti7  1  0.72530962  0.23133460  0.67534749  1
  Ti  Ti8  1  0.10557159  0.85767581  0.17271825  1
  Ti  Ti9  1  0.97239659  0.97991362  0.66553501  1
  Ti  Ti10  1  0.21515911  0.71573107  0.64553646  1
  Ti  Ti11  1  0.48465568  0.45977645  0.67629227  1
  N  N12  1  0.24430735  0.70381108  0.28170572  1
  N  N13  1  0.50651869  0.44305801  0.30865079  1
  N  N14  1  0.36540820  0.62742291  0.88297036  1
  N  N15  1  0.69612322  0.23425369  0.30310278  1
  N  N16  1  0.59814627  0.34167334  0.90512846  1
  N  N17  1  0.98449656  0.99350419  0.34038044  1
  N  N18  1  0.85892028  0.11880039  0.84182629  1
  N  N19  1  0.09470999  0.84679058  0.83855937  1
  N  N20  1  0.83566317  0.63953451  0.18925476  1
  N  N21  1  0.07999879  0.33574959  0.17108904  1
  N  N22  1  0.96725788  0.47780446  0.65098879  1
  N  N23  1  0.36005991  0.10345359  0.16348523  1
  N  N24  1  0.22784175  0.23141327  0.67212407  1
  N  N25  1  0.58890881  0.78968211  0.21128847  1
  N  N26  1  0.49933037  0.93872575  0.68757034  1
  N  N27  1  0.69931339  0.73537799  0.71281339  1
  B  B28  1  0.64781802  0.63318219  0.24654625  1
  B  B29  1  0.53955004  0.77940234  0.75802518  1
  B  B30  1  0.55136773  0.29109758  0.17247873  1
  B  B31  1  0.39135346  0.69242398  0.12652940  1
