# generated using pymatgen
data_Al15VN16
_symmetry_space_group_name_H-M   'P 1'
_cell_length_a   6.28395356
_cell_length_b   6.28395356
_cell_length_c   10.04451784
_cell_angle_alpha   90.00000000
_cell_angle_beta   90.00000000
_cell_angle_gamma   120.00000000
_symmetry_Int_Tables_number   1
_chemical_formula_structural   Al15VN16
_chemical_formula_sum   'Al15 V1 N16'
_cell_volume   343.49914459
_cell_formula_units_Z   1
loop_
 _symmetry_equiv_pos_site_id
 _symmetry_equiv_pos_as_xyz
  1  'x, y, z'
loop_
 _atom_site_type_symbol
 _atom_site_label
 _atom_site_symmetry_multiplicity
 _atom_site_fract_x
 _atom_site_fract_y
 _atom_site_fract_z
 _atom_site_occupancy
  V  V0  1  0.16666667  0.33333333  0.24214994  1
  Al  Al1  1  0.33447395  0.16552605  0.99821055  1
  Al  Al2  1  0.16666667  0.33333333  0.74980133  1
  Al  Al3  1  0.33306281  0.16693719  0.50069824  1
  Al  Al4  1  0.16695611  0.83347805  0.25229261  1
  Al  Al5  1  0.33447395  0.66894792  0.99821055  1
  Al  Al6  1  0.16611283  0.83305641  0.74980144  1
  Al  Al7  1  0.33306281  0.66612563  0.50069824  1
  Al  Al8  1  0.66652195  0.33304389  0.25229261  1
  Al  Al9  1  0.83105208  0.16552605  0.99821055  1
  Al  Al10  1  0.66694359  0.33388717  0.74980144  1
  Al  Al11  1  0.83387437  0.16693719  0.50069824  1
  Al  Al12  1  0.66652195  0.83347805  0.25229261  1
  Al  Al13  1  0.83333333  0.66666667  0.00063725  1
  Al  Al14  1  0.66694359  0.83305641  0.74980144  1
  Al  Al15  1  0.83333333  0.66666667  0.50094429  1
  N  N16  1  0.16666667  0.33333333  0.44428034  1
  N  N17  1  0.33795663  0.16204337  0.18866785  1
  N  N18  1  0.16666667  0.33333333  0.94252498  1
  N  N19  1  0.33351258  0.16648742  0.69196802  1
  N  N20  1  0.16671624  0.83335811  0.44219398  1
  N  N21  1  0.33795663  0.67591326  0.18866785  1
  N  N22  1  0.16530864  0.83265432  0.94029080  1
  N  N23  1  0.33351258  0.66702516  0.69196802  1
  N  N24  1  0.66664189  0.33328376  0.44219398  1
  N  N25  1  0.82408674  0.16204337  0.18866785  1
  N  N26  1  0.66734568  0.33469136  0.94029080  1
  N  N27  1  0.83297484  0.16648742  0.69196802  1
  N  N28  1  0.66664189  0.83335811  0.44219398  1
  N  N29  1  0.83333333  0.66666667  0.19221354  1
  N  N30  1  0.66734568  0.83265432  0.94029080  1
  N  N31  1  0.83333333  0.66666667  0.69107788  1
