# generated using pymatgen
data_Al15FeN16
_symmetry_space_group_name_H-M   'P 1'
_cell_length_a   6.27071064
_cell_length_b   6.27071064
_cell_length_c   10.06050614
_cell_angle_alpha   90.00000000
_cell_angle_beta   90.00000000
_cell_angle_gamma   120.00000002
_symmetry_Int_Tables_number   1
_chemical_formula_structural   Al15FeN16
_chemical_formula_sum   'Al15 Fe1 N16'
_cell_volume   342.59733751
_cell_formula_units_Z   1
loop_
 _symmetry_equiv_pos_site_id
 _symmetry_equiv_pos_as_xyz
  1  'x, y, z'
loop_
 _atom_site_type_symbol
 _atom_site_label
 _atom_site_symmetry_multiplicity
 _atom_site_fract_x
 _atom_site_fract_y
 _atom_site_fract_z
 _atom_site_occupancy
  Fe  Fe0  1  0.16666667  0.33333333  0.24634379  1
  Al  Al1  1  0.33376301  0.16623699  0.00025923  1
  Al  Al2  1  0.16666667  0.33333333  0.75039698  1
  Al  Al3  1  0.33337697  0.16662303  0.49877803  1
  Al  Al4  1  0.16448658  0.83224328  0.25225078  1
  Al  Al5  1  0.33376301  0.66752604  0.00025923  1
  Al  Al6  1  0.16668951  0.83334475  0.74961018  1
  Al  Al7  1  0.33337697  0.66675395  0.49877803  1
  Al  Al8  1  0.66775672  0.33551342  0.25225078  1
  Al  Al9  1  0.83247396  0.16623699  0.00025923  1
  Al  Al10  1  0.66665525  0.33331049  0.74961018  1
  Al  Al11  1  0.83324605  0.16662303  0.49877803  1
  Al  Al12  1  0.66775672  0.83224328  0.25225078  1
  Al  Al13  1  0.83333333  0.66666667  0.00025296  1
  Al  Al14  1  0.66665525  0.83334475  0.74961018  1
  Al  Al15  1  0.83333333  0.66666667  0.50130613  1
  N  N16  1  0.16666667  0.33333333  0.43947227  1
  N  N17  1  0.33596999  0.16403001  0.19135092  1
  N  N18  1  0.16666667  0.33333333  0.94202559  1
  N  N19  1  0.33300913  0.16699087  0.69025990  1
  N  N20  1  0.16603502  0.83301751  0.44180321  1
  N  N21  1  0.33596999  0.67193998  0.19135092  1
  N  N22  1  0.16647984  0.83323992  0.94039413  1
  N  N23  1  0.33300913  0.66601827  0.69025990  1
  N  N24  1  0.66698249  0.33396498  0.44180321  1
  N  N25  1  0.82806002  0.16403001  0.19135092  1
  N  N26  1  0.66676008  0.33352016  0.94039413  1
  N  N27  1  0.83398173  0.16699087  0.69025990  1
  N  N28  1  0.66698249  0.83301751  0.44180321  1
  N  N29  1  0.83333333  0.66666667  0.19078206  1
  N  N30  1  0.66676008  0.83323992  0.94039413  1
  N  N31  1  0.83333333  0.66666667  0.69130111  1
