# generated using pymatgen
data_NbAl15N16
_symmetry_space_group_name_H-M   'P 1'
_cell_length_a   6.33208341
_cell_length_b   6.33208341
_cell_length_c   10.04082829
_cell_angle_alpha   90.00000000
_cell_angle_beta   90.00000000
_cell_angle_gamma   119.99999997
_symmetry_Int_Tables_number   1
_chemical_formula_structural   NbAl15N16
_chemical_formula_sum   'Nb1 Al15 N16'
_cell_volume   348.65301550
_cell_formula_units_Z   1
loop_
 _symmetry_equiv_pos_site_id
 _symmetry_equiv_pos_as_xyz
  1  'x, y, z'
loop_
 _atom_site_type_symbol
 _atom_site_label
 _atom_site_symmetry_multiplicity
 _atom_site_fract_x
 _atom_site_fract_y
 _atom_site_fract_z
 _atom_site_occupancy
  Nb  Nb0  1  0.16666667  0.33333333  0.22346304  1
  Al  Al1  1  0.33761424  0.16238576  0.99611908  1
  Al  Al2  1  0.16666667  0.33333333  0.75210556  1
  Al  Al3  1  0.33200231  0.16799769  0.50186045  1
  Al  Al4  1  0.16819354  0.83409677  0.25521790  1
  Al  Al5  1  0.33761424  0.67522850  0.99611908  1
  Al  Al6  1  0.16510378  0.83255188  0.74893840  1
  Al  Al7  1  0.33200231  0.66400462  0.50186045  1
  Al  Al8  1  0.66590323  0.33180646  0.25521790  1
  Al  Al9  1  0.82477150  0.16238576  0.99611908  1
  Al  Al10  1  0.66744812  0.33489622  0.74893840  1
  Al  Al11  1  0.83599538  0.16799769  0.50186045  1
  Al  Al12  1  0.66590323  0.83409677  0.25521790  1
  Al  Al13  1  0.83333333  0.66666667  0.00084762  1
  Al  Al14  1  0.66744812  0.83255188  0.74893840  1
  Al  Al15  1  0.83333333  0.66666667  0.50146588  1
  N  N16  1  0.16666667  0.33333333  0.44579758  1
  N  N17  1  0.34719584  0.15280416  0.18625016  1
  N  N18  1  0.16666667  0.33333333  0.94908374  1
  N  N19  1  0.33297627  0.16702373  0.69400231  1
  N  N20  1  0.16709899  0.83354950  0.44480205  1
  N  N21  1  0.34719584  0.69439168  0.18625016  1
  N  N22  1  0.16365759  0.83182879  0.93888726  1
  N  N23  1  0.33297627  0.66595255  0.69400231  1
  N  N24  1  0.66645050  0.33290101  0.44480205  1
  N  N25  1  0.80560832  0.15280416  0.18625016  1
  N  N26  1  0.66817121  0.33634241  0.93888726  1
  N  N27  1  0.83404745  0.16702373  0.69400231  1
  N  N28  1  0.66645050  0.83354950  0.44480205  1
  N  N29  1  0.83333333  0.66666667  0.19392169  1
  N  N30  1  0.66817121  0.83182879  0.93888726  1
  N  N31  1  0.83333333  0.66666667  0.69108213  1
