# generated using pymatgen
data_Al15OsN16
_symmetry_space_group_name_H-M   'P 1'
_cell_length_a   6.31573990
_cell_length_b   6.31573989
_cell_length_c   9.98453995
_cell_angle_alpha   90.00000000
_cell_angle_beta   90.00000000
_cell_angle_gamma   120.00000003
_symmetry_Int_Tables_number   1
_chemical_formula_structural   Al15OsN16
_chemical_formula_sum   'Al15 Os1 N16'
_cell_volume   344.91109322
_cell_formula_units_Z   1
loop_
 _symmetry_equiv_pos_site_id
 _symmetry_equiv_pos_as_xyz
  1  'x, y, z'
loop_
 _atom_site_type_symbol
 _atom_site_label
 _atom_site_symmetry_multiplicity
 _atom_site_fract_x
 _atom_site_fract_y
 _atom_site_fract_z
 _atom_site_occupancy
  Os  Os0  1  0.16666667  0.33333333  0.21927878  1
  Al  Al1  1  0.33786208  0.16213792  0.99919557  1
  Al  Al2  1  0.16666667  0.33333333  0.75345643  1
  Al  Al3  1  0.33178503  0.16821497  0.49909952  1
  Al  Al4  1  0.16369092  0.83184546  0.25583501  1
  Al  Al5  1  0.33786208  0.67572416  0.99919557  1
  Al  Al6  1  0.16558439  0.83279219  0.74853943  1
  Al  Al7  1  0.33178503  0.66357007  0.49909952  1
  Al  Al8  1  0.66815454  0.33630908  0.25583501  1
  Al  Al9  1  0.82427584  0.16213792  0.99919557  1
  Al  Al10  1  0.66720781  0.33441561  0.74853943  1
  Al  Al11  1  0.83642993  0.16821497  0.49909952  1
  Al  Al12  1  0.66815454  0.83184546  0.25583501  1
  Al  Al13  1  0.83333333  0.66666667  0.99983632  1
  Al  Al14  1  0.66720781  0.83279219  0.74853943  1
  Al  Al15  1  0.83333333  0.66666667  0.50236308  1
  N  N16  1  0.16666667  0.33333333  0.43778188  1
  N  N17  1  0.34936145  0.15063855  0.18862704  1
  N  N18  1  0.16666667  0.33333333  0.95240375  1
  N  N19  1  0.33202980  0.16797020  0.69274693  1
  N  N20  1  0.16600203  0.83300101  0.44544951  1
  N  N21  1  0.34936145  0.69872291  0.18862704  1
  N  N22  1  0.16455337  0.83227668  0.93913685  1
  N  N23  1  0.33202980  0.66405961  0.69274693  1
  N  N24  1  0.66699899  0.33399797  0.44544951  1
  N  N25  1  0.80127709  0.15063855  0.18862704  1
  N  N26  1  0.66772332  0.33544663  0.93913685  1
  N  N27  1  0.83594039  0.16797020  0.69274693  1
  N  N28  1  0.66699899  0.83300101  0.44544951  1
  N  N29  1  0.83333333  0.66666667  0.19293243  1
  N  N30  1  0.66772332  0.83227668  0.93913685  1
  N  N31  1  0.83333333  0.66666667  0.69205776  1
