# generated using pymatgen
data_Y3TiN4
_symmetry_space_group_name_H-M   'P 1'
_cell_length_a   7.77983863
_cell_length_b   7.77983862
_cell_length_c   4.77572336
_cell_angle_alpha   90.00051638
_cell_angle_beta   89.99948364
_cell_angle_gamma   119.98073393
_symmetry_Int_Tables_number   1
_chemical_formula_structural   Y3TiN4
_chemical_formula_sum   'Y6 Ti2 N8'
_cell_volume   250.37747240
_cell_formula_units_Z   2
loop_
 _symmetry_equiv_pos_site_id
 _symmetry_equiv_pos_as_xyz
  1  'x, y, z'
loop_
 _atom_site_type_symbol
 _atom_site_label
 _atom_site_symmetry_multiplicity
 _atom_site_fract_x
 _atom_site_fract_y
 _atom_site_fract_z
 _atom_site_occupancy
  Y  Y0  1  0.16263705  0.33736287  0.44094225  1
  Y  Y1  1  0.33548759  0.16451250  0.94098851  1
  Y  Y2  1  0.17197603  0.82802403  0.44098086  1
  Y  Y3  1  0.67197603  0.32802403  0.44098086  1
  Y  Y4  1  0.66263705  0.83736287  0.44094225  1
  Y  Y5  1  0.83548759  0.66451250  0.94098851  1
  N  N6  1  0.14684220  0.35315772  0.94093822  1
  N  N7  1  0.33354270  0.16645737  0.44099223  1
  N  N8  1  0.18290669  0.81709340  0.94097517  1
  N  N9  1  0.33467095  0.66532893  0.44166747  1
  N  N10  1  0.68290669  0.31709340  0.94097517  1
  N  N11  1  0.83467095  0.16532893  0.44166747  1
  N  N12  1  0.64684220  0.85315772  0.94093822  1
  N  N13  1  0.83354270  0.66645737  0.44099223  1
  Ti  Ti14  1  0.33193677  0.66806319  0.94051530  1
  Ti  Ti15  1  0.83193677  0.16806319  0.94051530  1
