# generated using pymatgen
data_Zr3TiN4
_symmetry_space_group_name_H-M   'P 1'
_cell_length_a   7.44264504
_cell_length_b   7.44264503
_cell_length_c   4.52530998
_cell_angle_alpha   89.99812403
_cell_angle_beta   90.00187601
_cell_angle_gamma   120.26853747
_symmetry_Int_Tables_number   1
_chemical_formula_structural   Zr3TiN4
_chemical_formula_sum   'Zr6 Ti2 N8'
_cell_volume   216.49706964
_cell_formula_units_Z   2
loop_
 _symmetry_equiv_pos_site_id
 _symmetry_equiv_pos_as_xyz
  1  'x, y, z'
loop_
 _atom_site_type_symbol
 _atom_site_label
 _atom_site_symmetry_multiplicity
 _atom_site_fract_x
 _atom_site_fract_y
 _atom_site_fract_z
 _atom_site_occupancy
  Zr  Zr0  1  0.16573581  0.33426419  0.44099846  1
  Zr  Zr1  1  0.33076764  0.16923236  0.94100216  1
  Zr  Zr2  1  0.16838333  0.83161667  0.44100148  1
  Zr  Zr3  1  0.66838333  0.33161667  0.44100148  1
  Zr  Zr4  1  0.66573581  0.83426419  0.44099846  1
  Zr  Zr5  1  0.83076764  0.66923236  0.94100216  1
  N  N6  1  0.15724219  0.34275781  0.94099327  1
  N  N7  1  0.33371858  0.16628142  0.44100450  1
  N  N8  1  0.17657024  0.82342976  0.94100187  1
  N  N9  1  0.33231387  0.66768613  0.44100121  1
  N  N10  1  0.67657024  0.32342976  0.94100187  1
  N  N11  1  0.83231387  0.16768613  0.44100121  1
  N  N12  1  0.65724219  0.84275781  0.94099327  1
  N  N13  1  0.83371858  0.66628142  0.44100450  1
  Ti  Ti14  1  0.33526833  0.66473167  0.94099705  1
  Ti  Ti15  1  0.83526833  0.16473167  0.94099705  1
