# generated using pymatgen
data_Ti3MnC4
_symmetry_space_group_name_H-M   'P 1'
_cell_length_a   8.00141073
_cell_length_b   7.99441166
_cell_length_c   5.22782748
_cell_angle_alpha   102.77884896
_cell_angle_beta   102.43984745
_cell_angle_gamma   98.13465386
_symmetry_Int_Tables_number   1
_chemical_formula_structural   Ti3MnC4
_chemical_formula_sum   'Ti12 Mn4 C16'
_cell_volume   312.12225310
_cell_formula_units_Z   4
loop_
 _symmetry_equiv_pos_site_id
 _symmetry_equiv_pos_as_xyz
  1  'x, y, z'
loop_
 _atom_site_type_symbol
 _atom_site_label
 _atom_site_symmetry_multiplicity
 _atom_site_fract_x
 _atom_site_fract_y
 _atom_site_fract_z
 _atom_site_occupancy
  Mn  Mn0  1  0.40225321  0.13075202  0.04653391  1
  Mn  Mn1  1  0.26440369  0.24889059  0.46736884  1
  Mn  Mn2  1  0.11954191  0.88791922  0.53227137  1
  Mn  Mn3  1  0.84454781  0.12069052  0.46553829  1
  C  C4  1  0.49751975  0.75217787  0.25097377  1
  C  C5  1  0.25092000  0.00907407  0.25988607  1
  C  C6  1  0.37503874  0.36949055  0.24704971  1
  C  C7  1  0.12546799  0.62038293  0.24748511  1
  C  C8  1  0.87884992  0.88417245  0.26108230  1
  C  C9  1  0.00264232  0.24325212  0.25495966  1
  C  C10  1  0.75140130  0.50033700  0.25233486  1
  C  C11  1  0.62514105  0.12586284  0.25335044  1
  C  C12  1  0.36857865  0.88344435  0.75707365  1
  C  C13  1  0.48983810  0.24499674  0.75248798  1
  C  C14  1  0.24832883  0.49318646  0.74210792  1
  C  C15  1  0.00474694  0.75709444  0.74892973  1
  C  C16  1  0.74924739  0.00227600  0.74415678  1
  C  C17  1  0.13193369  0.11151512  0.72572250  1
  C  C18  1  0.87522220  0.36879331  0.74272195  1
  C  C19  1  0.62406346  0.62512105  0.75064169  1
  Ti  Ti20  1  0.12525219  0.36353187  0.98592816  1
  Ti  Ti21  1  0.24927359  0.75330667  0.00666663  1
  Ti  Ti22  1  0.00297371  0.00331793  0.01011657  1
  Ti  Ti23  1  0.75145117  0.25036200  0.99100244  1
  Ti  Ti24  1  0.88011871  0.62846102  0.00336626  1
  Ti  Ti25  1  0.62311581  0.87294612  0.99451061  1
  Ti  Ti26  1  0.49623377  0.49506936  -0.00133875  1
  Ti  Ti27  1  0.36992168  0.62399335  0.49814221  1
  Ti  Ti28  1  0.62600495  0.37922189  0.50488953  1
  Ti  Ti29  1  0.00141930  0.49340053  0.49398323  1
  Ti  Ti30  1  0.75183709  0.75579602  0.49953125  1
  Ti  Ti31  1  0.49271110  0.00116361  0.51052533  1
