# generated using pymatgen
data_AlCr3N4
_symmetry_space_group_name_H-M   'P 1'
_cell_length_a   5.70148434
_cell_length_b   6.38461630
_cell_length_c   7.69584993
_cell_angle_alpha   84.00556481
_cell_angle_beta   79.62533247
_cell_angle_gamma   77.65286220
_symmetry_Int_Tables_number   1
_chemical_formula_structural   AlCr3N4
_chemical_formula_sum   'Al4 Cr12 N16'
_cell_volume   268.55468191
_cell_formula_units_Z   4
loop_
 _symmetry_equiv_pos_site_id
 _symmetry_equiv_pos_as_xyz
  1  'x, y, z'
loop_
 _atom_site_type_symbol
 _atom_site_label
 _atom_site_symmetry_multiplicity
 _atom_site_fract_x
 _atom_site_fract_y
 _atom_site_fract_z
 _atom_site_occupancy
  Cr  Cr0  1  0.10558905  0.69636756  0.89735281  1
  Cr  Cr1  1  0.60039800  0.63336057  0.95526755  1
  Cr  Cr2  1  0.99581743  0.45681592  0.69438725  1
  Cr  Cr3  1  0.42977036  0.44354595  0.69197274  1
  Cr  Cr4  1  0.28732127  0.08616564  0.83522219  1
  Cr  Cr5  1  0.16677620  0.77416996  0.58253167  1
  Cr  Cr6  1  0.02337873  0.59450637  0.29673084  1
  Cr  Cr7  1  0.52947326  0.59810646  0.28933061  1
  Cr  Cr8  1  0.86786836  0.30398813  0.06645787  1
  Cr  Cr9  1  0.42859982  0.29633942  0.05939700  1
  Cr  Cr10  1  0.20611076  0.91546423  0.19196114  1
  Cr  Cr11  1  0.75180323  0.91973532  0.19100058  1
  Al  Al12  1  0.78494171  0.06232373  0.80108940  1
  Al  Al13  1  0.65390452  0.81126023  0.56243045  1
  Al  Al14  1  0.33447390  0.18403143  0.43822836  1
  Al  Al15  1  0.84264598  0.20654363  0.44291389  1
  N  N16  1  0.69583104  0.36142648  0.85749624  1
  N  N17  1  0.17841959  0.38742220  0.89780412  1
  N  N18  1  0.55723372  0.12856578  0.62561288  1
  N  N19  1  0.06348369  0.12891196  0.62716690  1
  N  N20  1  0.86043621  0.76020372  0.74628032  1
  N  N21  1  0.39157265  0.75744503  0.75007978  1
  N  N22  1  0.74763715  0.50872900  0.49940178  1
  N  N23  1  0.25263896  0.49253930  0.48980873  1
  N  N24  1  0.61808822  0.24942711  0.26276164  1
  N  N25  1  0.11803575  0.25131351  0.25047109  1
  N  N26  1  0.50944539  0.98866278  0.00491659  1
  N  N27  1  0.99851134  0.99493388  0.99345303  1
  N  N28  1  0.93609841  0.88365710  0.39036548  1
  N  N29  1  0.43444962  0.87998729  0.37945151  1
  N  N30  1  0.82193661  0.62095811  0.11438197  1
  N  N31  1  0.30730905  0.62309220  0.11427361  1
