# generated using pymatgen
data_CrFeCoReNi
_symmetry_space_group_name_H-M   'P 1'
_cell_length_a   5.07417194
_cell_length_b   6.67840060
_cell_length_c   7.33653289
_cell_angle_alpha   106.16805150
_cell_angle_beta   90.27875793
_cell_angle_gamma   81.01022079
_symmetry_Int_Tables_number   1
_chemical_formula_structural   CrFeCoReNi
_chemical_formula_sum   'Cr4 Fe4 Co4 Re4 Ni4'
_cell_volume   235.65377138
_cell_formula_units_Z   4
loop_
 _symmetry_equiv_pos_site_id
 _symmetry_equiv_pos_as_xyz
  1  'x, y, z'
loop_
 _atom_site_type_symbol
 _atom_site_label
 _atom_site_symmetry_multiplicity
 _atom_site_fract_x
 _atom_site_fract_y
 _atom_site_fract_z
 _atom_site_occupancy
  Co  Co0  1  0.59351101  0.61074356  0.90651512  1
  Co  Co1  1  0.80559581  0.79502962  0.70711613  1
  Co  Co2  1  0.89817151  0.40106816  0.60115641  1
  Co  Co3  1  0.30132413  0.79520746  0.70654120  1
  Cr  Cr4  1  0.67012909  0.18874441  0.29686584  1
  Cr  Cr5  1  0.16352883  0.19241442  0.30055074  1
  Cr  Cr6  1  0.51425113  0.00093955  0.99090996  1
  Cr  Cr7  1  0.01508815  0.01518422  0.99203907  1
  Fe  Fe8  1  0.20160521  0.19630800  0.79336201  1
  Fe  Fe9  1  0.31044125  0.81266053  0.19671533  1
  Fe  Fe10  1  0.01222434  -0.00120912  0.50489942  1
  Fe  Fe11  1  0.39311379  0.39449266  0.08983496  1
  Ni  Ni12  1  0.71133501  0.20148355  0.80104569  1
  Ni  Ni13  1  0.39556777  0.40297090  0.60513338  1
  Ni  Ni14  1  0.80978703  0.80022068  0.19600063  1
  Ni  Ni15  1  0.89122063  0.40093927  0.09715275  1
  Re  Re16  1  0.09626980  0.59811534  0.89911273  1
  Re  Re17  1  0.60450354  0.59032582  0.39827864  1
  Re  Re18  1  0.50847546  0.00151260  0.51612852  1
  Re  Re19  1  0.10385651  0.60284837  0.40064147  1
