# generated using pymatgen
data_Ti24C19
_symmetry_space_group_name_H-M   'P 1'
_cell_length_a   8.64000000
_cell_length_b   4.32000000
_cell_length_c   12.96000000
_cell_angle_alpha   90.00000000
_cell_angle_beta   90.00000000
_cell_angle_gamma   90.00000000
_symmetry_Int_Tables_number   1
_chemical_formula_structural   Ti24C19
_chemical_formula_sum   'Ti24 C19'
_cell_volume   483.72940800
_cell_formula_units_Z   1
loop_
 _symmetry_equiv_pos_site_id
 _symmetry_equiv_pos_as_xyz
  1  'x, y, z'
loop_
 _atom_site_type_symbol
 _atom_site_label
 _atom_site_symmetry_multiplicity
 _atom_site_fract_x
 _atom_site_fract_y
 _atom_site_fract_z
 _atom_site_occupancy
  Ti  Ti0  1  -0.00000000  0.00000000  0.00000000  1
  Ti  Ti1  1  -0.00000000  0.50000000  0.16545864  1
  Ti  Ti2  1  0.24210503  0.00000000  0.17170585  1
  Ti  Ti3  1  0.24656033  0.50000000  0.00000000  1
  Ti  Ti4  1  -0.00000000  0.00000000  0.33371793  1
  Ti  Ti5  1  -0.00000000  0.50000000  0.50000000  1
  Ti  Ti6  1  0.24746297  0.00000000  0.50000000  1
  Ti  Ti7  1  0.24997405  0.50000000  0.33438059  1
  Ti  Ti8  1  -0.00000000  0.00000000  0.66628207  1
  Ti  Ti9  1  -0.00000000  0.50000000  0.83454136  1
  Ti  Ti10  1  0.24210503  0.00000000  0.82829415  1
  Ti  Ti11  1  0.24997405  0.50000000  0.66561941  1
  Ti  Ti12  1  0.50000000  0.00000000  0.00000000  1
  Ti  Ti13  1  0.50000000  0.50000000  0.17012319  1
  Ti  Ti14  1  0.75789497  0.00000000  0.17170585  1
  Ti  Ti15  1  0.75343967  0.50000000  0.00000000  1
  Ti  Ti16  1  0.50000000  0.00000000  0.34082755  1
  Ti  Ti17  1  0.50000000  0.50000000  0.50000000  1
  Ti  Ti18  1  0.75253703  0.00000000  0.50000000  1
  Ti  Ti19  1  0.75002595  0.50000000  0.33438059  1
  Ti  Ti20  1  0.50000000  0.00000000  0.65917245  1
  Ti  Ti21  1  0.50000000  0.50000000  0.82987681  1
  Ti  Ti22  1  0.75789497  -0.00000000  0.82829415  1
  Ti  Ti23  1  0.75002595  0.50000000  0.66561941  1
  C  C24  1  0.25676723  0.50000000  0.16138382  1
  C  C25  1  -0.00000000  0.50000000  0.00000000  1
  C  C26  1  -0.00000000  0.00000000  0.16582916  1
  C  C27  1  0.24998755  0.50000000  0.50000000  1
  C  C28  1  0.25161892  0.00000000  0.33064869  1
  C  C29  1  -0.00000000  0.50000000  0.33237076  1
  C  C30  1  -0.00000000  0.00000000  0.50000000  1
  C  C31  1  0.25676723  0.50000000  0.83861618  1
  C  C32  1  0.25161892  0.00000000  0.66935131  1
  C  C33  1  -0.00000000  0.50000000  0.66762924  1
  C  C34  1  -0.00000000  0.00000000  0.83417084  1
  C  C35  1  0.74323277  0.50000000  0.16138382  1
  C  C36  1  0.75001245  0.50000000  0.50000000  1
  C  C37  1  0.74838108  0.00000000  0.33064869  1
  C  C38  1  0.50000000  0.50000000  0.33045158  1
  C  C39  1  0.50000000  0.00000000  0.50000000  1
  C  C40  1  0.74323277  0.50000000  0.83861618  1
  C  C41  1  0.74838108  0.00000000  0.66935131  1
  C  C42  1  0.50000000  0.50000000  0.66954842  1
