# generated using pymatgen
data_Ti24C19
_symmetry_space_group_name_H-M   'P 1'
_cell_length_a   8.64000000
_cell_length_b   4.32000000
_cell_length_c   12.96000000
_cell_angle_alpha   90.00000000
_cell_angle_beta   90.00000000
_cell_angle_gamma   90.00000000
_symmetry_Int_Tables_number   1
_chemical_formula_structural   Ti24C19
_chemical_formula_sum   'Ti24 C19'
_cell_volume   483.72940800
_cell_formula_units_Z   1
loop_
 _symmetry_equiv_pos_site_id
 _symmetry_equiv_pos_as_xyz
  1  'x, y, z'
loop_
 _atom_site_type_symbol
 _atom_site_label
 _atom_site_symmetry_multiplicity
 _atom_site_fract_x
 _atom_site_fract_y
 _atom_site_fract_z
 _atom_site_occupancy
  Ti  Ti0  1  -0.00012481  0.00000000  -0.00152286  1
  Ti  Ti1  1  -0.00029738  0.50000000  0.15843118  1
  Ti  Ti2  1  0.24619575  0.00000000  0.16729196  1
  Ti  Ti3  1  0.25140802  0.50000000  0.00068184  1
  Ti  Ti4  1  -0.00061461  0.00000000  0.33239707  1
  Ti  Ti5  1  0.00140054  0.50000000  0.50797038  1
  Ti  Ti6  1  0.24041086  0.00000000  0.49357000  1
  Ti  Ti7  1  0.26067830  0.50000000  0.33262317  1
  Ti  Ti8  1  -0.00900651  0.00000000  0.66804529  1
  Ti  Ti9  1  0.00142836  0.50000000  0.83246607  1
  Ti  Ti10  1  0.24290934  0.00000000  0.83838924  1
  Ti  Ti11  1  0.24854348  0.50000000  0.66690718  1
  Ti  Ti12  1  0.50079787  0.00000000  0.00846777  1
  Ti  Ti13  1  0.49979838  0.50000000  0.16630525  1
  Ti  Ti14  1  0.75421190  0.00000000  0.16745913  1
  Ti  Ti15  1  0.74900900  0.50000000  -0.00105646  1
  Ti  Ti16  1  0.50064711  0.00000000  0.32553527  1
  Ti  Ti17  1  0.49846538  0.50000000  0.49776343  1
  Ti  Ti18  1  0.76026292  0.00000000  0.49923878  1
  Ti  Ti19  1  0.73993606  0.50000000  0.33476446  1
  Ti  Ti20  1  0.50256934  0.00000000  0.66525270  1
  Ti  Ti21  1  0.49876344  0.50000000  0.83919181  1
  Ti  Ti22  1  0.75830338  0.00000000  0.83298284  1
  Ti  Ti23  1  0.75692903  0.50000000  0.66691045  1
  C  C24  1  0.24829030  0.50000000  0.16777209  1
  C  C25  1  0.25156753  0.00000000  -0.00271996  1
  C  C26  1  0.00016007  0.50000000  0.00047693  1
  C  C27  1  0.00005634  0.00000000  0.16823583  1
  C  C28  1  0.25507722  0.50000000  0.50365765  1
  C  C29  1  0.24896589  0.00000000  0.33542251  1
  C  C30  1  0.00090002  0.00000000  0.49798223  1
  C  C31  1  0.25742301  0.50000000  0.82900217  1
  C  C32  1  0.00254908  0.50000000  0.66632189  1
  C  C33  1  0.00124028  0.00000000  0.83298532  1
  C  C34  1  0.75259884  0.50000000  0.16796277  1
  C  C35  1  0.74779176  0.00000000  -0.00171493  1
  C  C36  1  0.50012870  0.50000000  -0.00163548  1
  C  C37  1  0.50011516  0.00000000  0.16690153  1
  C  C38  1  0.74493440  0.50000000  0.50087311  1
  C  C39  1  0.75032180  0.00000000  0.33473439  1
  C  C40  1  0.50013837  0.50000000  0.33524226  1
  C  C41  1  0.74310088  0.50000000  0.83155844  1
  C  C42  1  0.74201522  0.00000000  0.66687530  1
