# generated using pymatgen
data_Ti24C19
_symmetry_space_group_name_H-M   'P 1'
_cell_length_a   8.64000000
_cell_length_b   4.32000000
_cell_length_c   12.96000000
_cell_angle_alpha   90.00000000
_cell_angle_beta   90.00000000
_cell_angle_gamma   90.00000000
_symmetry_Int_Tables_number   1
_chemical_formula_structural   Ti24C19
_chemical_formula_sum   'Ti24 C19'
_cell_volume   483.72940800
_cell_formula_units_Z   1
loop_
 _symmetry_equiv_pos_site_id
 _symmetry_equiv_pos_as_xyz
  1  'x, y, z'
loop_
 _atom_site_type_symbol
 _atom_site_label
 _atom_site_symmetry_multiplicity
 _atom_site_fract_x
 _atom_site_fract_y
 _atom_site_fract_z
 _atom_site_occupancy
  Ti  Ti0  1  -0.00101571  0.00000000  -0.00539180  1
  Ti  Ti1  1  0.00205523  0.50000000  0.16570625  1
  Ti  Ti2  1  0.25853183  0.00000000  0.16711942  1
  Ti  Ti3  1  0.24777465  0.50000000  0.00157297  1
  Ti  Ti4  1  -0.00744132  0.00000000  0.33483805  1
  Ti  Ti5  1  0.00224419  0.50000000  0.49878123  1
  Ti  Ti6  1  0.25947216  0.00000000  0.50549467  1
  Ti  Ti7  1  0.24707906  0.50000000  0.33254961  1
  Ti  Ti8  1  -0.00068091  0.00000000  0.67247785  1
  Ti  Ti9  1  -0.00031330  0.50000000  0.83460731  1
  Ti  Ti10  1  0.25105383  0.00000000  0.82650878  1
  Ti  Ti11  1  0.24889424  0.50000000  0.66597740  1
  Ti  Ti12  1  0.50100334  0.00000000  -0.00052642  1
  Ti  Ti13  1  0.49962665  0.50000000  0.16652518  1
  Ti  Ti14  1  0.74083891  0.00000000  0.17258233  1
  Ti  Ti15  1  0.75151209  0.50000000  0.00178877  1
  Ti  Ti16  1  0.50925890  0.00000000  0.33269041  1
  Ti  Ti17  1  0.49864136  0.50000000  0.49859501  1
  Ti  Ti18  1  0.73953848  0.00000000  0.50068309  1
  Ti  Ti19  1  0.75204578  0.50000000  0.33469950  1
  Ti  Ti20  1  0.50025581  0.00000000  0.66712035  1
  Ti  Ti21  1  0.50018874  0.50000000  0.83451876  1
  Ti  Ti22  1  0.74866528  0.00000000  0.82602977  1
  Ti  Ti23  1  0.75083739  0.50000000  0.66427742  1
  C  C24  1  0.24817302  0.50000000  0.16644317  1
  C  C25  1  -0.00033565  0.50000000  0.00124355  1
  C  C26  1  0.24837791  0.50000000  0.49845298  1
  C  C27  1  0.00202215  0.50000000  0.33361888  1
  C  C28  1  0.24983677  0.50000000  0.83537913  1
  C  C29  1  0.24894507  0.00000000  0.66565169  1
  C  C30  1  -0.00001352  0.50000000  0.66461135  1
  C  C31  1  -0.00000414  0.00000000  0.83466863  1
  C  C32  1  0.75298183  0.50000000  0.16509179  1
  C  C33  1  0.49967728  0.50000000  0.00033778  1
  C  C34  1  0.49915507  0.00000000  0.16633997  1
  C  C35  1  0.75208013  0.50000000  0.49972437  1
  C  C36  1  0.75215717  0.00000000  0.33285773  1
  C  C37  1  0.49717777  0.50000000  0.33299914  1
  C  C38  1  0.49855139  0.00000000  0.49942362  1
  C  C39  1  0.74995978  0.50000000  0.83565497  1
  C  C40  1  0.75123146  0.00000000  0.66656767  1
  C  C41  1  0.49997459  0.50000000  0.66670709  1
  C  C42  1  0.49998527  0.00000000  0.83500061  1
