# generated using pymatgen
data_Ti7V
_symmetry_space_group_name_H-M   'P 1'
_cell_length_a   5.00423660
_cell_length_b   9.50046359
_cell_length_c   11.82797596
_cell_angle_alpha   102.61395587
_cell_angle_beta   97.96778171
_cell_angle_gamma   80.64054623
_symmetry_Int_Tables_number   1
_chemical_formula_structural   Ti7V
_chemical_formula_sum   'Ti28 V4'
_cell_volume   538.34133866
_cell_formula_units_Z   4
loop_
 _symmetry_equiv_pos_site_id
 _symmetry_equiv_pos_as_xyz
  1  'x, y, z'
loop_
 _atom_site_type_symbol
 _atom_site_label
 _atom_site_symmetry_multiplicity
 _atom_site_fract_x
 _atom_site_fract_y
 _atom_site_fract_z
 _atom_site_occupancy
  V  V0  1  0.43615201  0.43708580  0.74861251  1
  V  V1  1  0.76828461  0.75197678  0.00122517  1
  V  V2  1  0.23128326  0.24771272  0.99955172  1
  V  V3  1  0.99845575  0.99804588  -0.00003193  1
  Ti  Ti4  1  0.46858823  0.96878831  0.88148478  1
  Ti  Ti5  1  0.93868059  0.93861266  0.75553068  1
  Ti  Ti6  1  0.22306702  0.71806151  0.87800877  1
  Ti  Ti7  1  0.96482233  0.46708231  0.87443868  1
  Ti  Ti8  1  0.68514861  0.68598825  0.75609030  1
  Ti  Ti9  1  0.40818027  0.90779632  0.62979552  1
  Ti  Ti10  1  0.87679598  0.87580129  0.50131281  1
  Ti  Ti11  1  0.71341966  0.21704925  0.87812751  1
  Ti  Ti12  1  0.15943162  0.65568802  0.62888906  1
  Ti  Ti13  1  0.90769566  0.40686991  0.62731377  1
  Ti  Ti14  1  0.62633261  0.62529061  0.50152261  1
  Ti  Ti15  1  0.34637486  0.84366654  0.37448340  1
  Ti  Ti16  1  0.81571101  0.81270357  0.24531182  1
  Ti  Ti17  1  0.19262068  0.19121758  0.75566556  1
  Ti  Ti18  1  0.65545065  0.15998895  0.62848938  1
  Ti  Ti19  1  0.37500741  0.37554439  0.50139072  1
  Ti  Ti20  1  0.09320783  0.59372775  0.37417072  1
  Ti  Ti21  1  0.84284762  0.34271454  0.37283542  1
  Ti  Ti22  1  0.56297683  0.56245217  0.24775555  1
  Ti  Ti23  1  0.28837147  0.78303724  0.11985011  1
  Ti  Ti24  1  0.12443106  0.12487072  0.50038719  1
  Ti  Ti25  1  0.59289023  0.09387534  0.37332079  1
  Ti  Ti26  1  0.30935973  0.31258746  0.24488852  1
  Ti  Ti27  1  0.02929899  0.53169247  0.11984605  1
  Ti  Ti28  1  0.77757237  0.27832318  0.11920258  1
  Ti  Ti29  1  0.49645617  0.49756026  0.99422141  1
  Ti  Ti30  1  0.06200392  0.06201646  0.24624398  1
  Ti  Ti31  1  0.52908087  0.03217177  0.12006483  1
