# generated using pymatgen
data_Ti3Al
_symmetry_space_group_name_H-M   'P 1'
_cell_length_a   8.13364978
_cell_length_b   8.53581721
_cell_length_c   8.53432661
_cell_angle_alpha   90.40440739
_cell_angle_beta   92.04205126
_cell_angle_gamma   66.23965119
_symmetry_Int_Tables_number   1
_chemical_formula_structural   Ti3Al
_chemical_formula_sum   'Ti24 Al8'
_cell_volume   541.93163395
_cell_formula_units_Z   8
loop_
 _symmetry_equiv_pos_site_id
 _symmetry_equiv_pos_as_xyz
  1  'x, y, z'
loop_
 _atom_site_type_symbol
 _atom_site_label
 _atom_site_symmetry_multiplicity
 _atom_site_fract_x
 _atom_site_fract_y
 _atom_site_fract_z
 _atom_site_occupancy
  Ti  Ti0  1  0.97078232  0.01553499  0.01814978  1
  Ti  Ti1  1  0.07676822  0.56918029  0.08954087  1
  Ti  Ti2  1  0.58779265  0.11937006  0.05818016  1
  Ti  Ti3  1  0.14640630  0.11454699  0.77935645  1
  Ti  Ti4  1  0.23015586  0.23700755  0.47780574  1
  Ti  Ti5  1  0.53303114  0.46174810  0.98797723  1
  Ti  Ti6  1  0.03475234  0.53180422  0.66891359  1
  Ti  Ti7  1  0.16818494  0.67209249  0.42487641  1
  Ti  Ti8  1  0.28747651  0.74191276  0.14468479  1
  Ti  Ti9  1  0.65198430  0.13844660  0.44166710  1
  Ti  Ti10  1  0.80807195  0.29834154  0.21530991  1
  Ti  Ti11  1  0.29016404  0.35960338  0.88207784  1
  Ti  Ti12  1  0.41580437  0.43125912  0.61923694  1
  Ti  Ti13  1  0.57407247  0.58293476  0.40050631  1
  Ti  Ti14  1  0.21718100  0.71937350  0.81364159  1
  Ti  Ti15  1  0.33779212  0.87232105  0.56188454  1
  Ti  Ti16  1  0.73500292  0.19487110  0.78953128  1
  Ti  Ti17  1  0.86077064  0.31746267  0.55575836  1
  Ti  Ti18  1  0.60274921  0.62404882  0.73642535  1
  Ti  Ti19  1  0.73143073  0.80142496  0.54702266  1
  Ti  Ti20  1  0.84377683  0.85797391  0.23769545  1
  Ti  Ti21  1  0.43860758  0.89031453  0.95201423  1
  Ti  Ti22  1  0.81281491  0.81814299  0.88585176  1
  Ti  Ti23  1  0.97021377  0.95697192  0.60963017  1
  Al  Al24  1  0.07503852  0.02195807  0.33389380  1
  Al  Al25  1  0.19054158  0.19229161  0.12228894  1
  Al  Al26  1  0.39324933  0.39042863  0.26033713  1
  Al  Al27  1  0.49317281  0.07155681  0.71143023  1
  Al  Al28  1  0.70376273  0.64342857  0.11125789  1
  Al  Al29  1  0.47569396  0.94063983  0.28852152  1
  Al  Al30  1  0.93799753  0.52028398  0.35710611  1
  Al  Al31  1  0.90475641  0.39272417  0.91742586  1
