# generated using pymatgen
data_Ti5Al3
_symmetry_space_group_name_H-M   'P 1'
_cell_length_a   5.62180506
_cell_length_b   4.66263016
_cell_length_c   10.53718067
_cell_angle_alpha   90.00000000
_cell_angle_beta   105.47041243
_cell_angle_gamma   90.00000000
_symmetry_Int_Tables_number   1
_chemical_formula_structural   Ti5Al3
_chemical_formula_sum   'Ti10 Al6'
_cell_volume   266.19741057
_cell_formula_units_Z   2
loop_
 _symmetry_equiv_pos_site_id
 _symmetry_equiv_pos_as_xyz
  1  'x, y, z'
loop_
 _atom_site_type_symbol
 _atom_site_label
 _atom_site_symmetry_multiplicity
 _atom_site_fract_x
 _atom_site_fract_y
 _atom_site_fract_z
 _atom_site_occupancy
  Al  Al0  1  0.55380137  0.00000000  0.97902226  1
  Al  Al1  1  0.13428835  0.50000000  0.14443514  1
  Al  Al2  1  0.00399760  0.50000000  0.39483289  1
  Al  Al3  1  0.67670534  0.00000000  0.73352874  1
  Al  Al4  1  0.75457847  0.50000000  0.89014741  1
  Al  Al5  1  0.25991433  0.50000000  0.89019876  1
  Ti  Ti6  1  0.62583412  0.50000000  0.13422440  1
  Ti  Ti7  1  0.93342203  0.00000000  0.23593129  1
  Ti  Ti8  1  0.06366398  0.00000000  0.98492615  1
  Ti  Ti9  1  0.42627048  0.00000000  0.22684916  1
  Ti  Ti10  1  0.50312494  0.50000000  0.38574523  1
  Ti  Ti11  1  0.81057998  0.00000000  0.49028236  1
  Ti  Ti12  1  0.88995315  0.50000000  0.65629171  1
  Ti  Ti13  1  0.30842543  0.00000000  0.48645237  1
  Ti  Ti14  1  0.37860983  0.50000000  0.63498998  1
  Ti  Ti15  1  0.17683057  0.00000000  0.73214214  1
