# generated using pymatgen
data_AlCrN2
_symmetry_space_group_name_H-M   'P 1'
_cell_length_a   7.21291249
_cell_length_b   7.06606790
_cell_length_c   2.78296598
_cell_angle_alpha   90.00000000
_cell_angle_beta   90.00000000
_cell_angle_gamma   105.61536301
_symmetry_Int_Tables_number   1
_chemical_formula_structural   AlCrN2
_chemical_formula_sum   'Al4 Cr4 N8'
_cell_volume   136.60400500
_cell_formula_units_Z   4
loop_
 _symmetry_equiv_pos_site_id
 _symmetry_equiv_pos_as_xyz
  1  'x, y, z'
loop_
 _atom_site_type_symbol
 _atom_site_label
 _atom_site_symmetry_multiplicity
 _atom_site_fract_x
 _atom_site_fract_y
 _atom_site_fract_z
 _atom_site_occupancy
  Al  Al0  1  0.13785495  0.86311015  0.50000000  1
  Al  Al1  1  0.00932887  0.48795887  0.00000000  1
  Al  Al2  1  0.23571335  0.24140159  0.00000000  1
  Al  Al3  1  0.50598600  0.03711705  0.00000000  1
  N  N4  1  0.09559167  0.34226243  0.50000000  1
  N  N5  1  0.00018770  0.98643421  0.00000000  1
  N  N6  1  0.35318748  0.10668903  0.50000000  1
  N  N7  1  0.24901918  0.72803375  0.00000000  1
  N  N8  1  0.61723316  0.88957108  0.50000000  1
  N  N9  1  0.45982539  0.46911612  0.00000000  1
  N  N10  1  0.89416145  0.63215600  0.50000000  1
  N  N11  1  0.73872071  0.26385177  0.00000000  1
  Cr  Cr12  1  0.86127053  0.10161354  0.50000000  1
  Cr  Cr13  1  0.76573452  0.76190701  0.00000000  1
  Cr  Cr14  1  0.43004451  0.65284089  0.50000000  1
  Cr  Cr15  1  0.64614052  0.43593648  0.50000000  1
