# generated using pymatgen
data_AlOsN2
_symmetry_space_group_name_H-M   'P 1'
_cell_length_a   7.74511545
_cell_length_b   7.49595752
_cell_length_c   2.75793825
_cell_angle_alpha   90.00000000
_cell_angle_beta   90.00000000
_cell_angle_gamma   101.60801337
_symmetry_Int_Tables_number   1
_chemical_formula_structural   AlOsN2
_chemical_formula_sum   'Al4 Os4 N8'
_cell_volume   156.84290643
_cell_formula_units_Z   4
loop_
 _symmetry_equiv_pos_site_id
 _symmetry_equiv_pos_as_xyz
  1  'x, y, z'
loop_
 _atom_site_type_symbol
 _atom_site_label
 _atom_site_symmetry_multiplicity
 _atom_site_fract_x
 _atom_site_fract_y
 _atom_site_fract_z
 _atom_site_occupancy
  Al  Al0  1  0.09678402  0.83550504  0.50000000  1
  Al  Al1  1  0.98503735  0.48001826  0.00000000  1
  Al  Al2  1  0.25564815  0.25433981  0.00000000  1
  Al  Al3  1  0.50902101  0.04125951  0.00000000  1
  N  N4  1  0.09587970  0.35357764  0.50000000  1
  N  N5  1  0.09950825  0.02202775  0.00000000  1
  N  N6  1  0.42206617  0.19243396  0.50000000  1
  N  N7  1  0.18351145  0.68734483  0.00000000  1
  N  N8  1  0.52992894  0.84874049  0.50000000  1
  N  N9  1  0.55917039  0.55396616  0.00000000  1
  N  N10  1  0.87389005  0.65442097  0.50000000  1
  N  N11  1  0.73766263  0.19047097  0.00000000  1
  Os  Os12  1  0.90315985  0.08975508  0.50000000  1
  Os  Os13  1  0.73739785  0.79372636  0.00000000  1
  Os  Os14  1  0.34918280  0.60531139  0.50000000  1
  Os  Os15  1  0.66215140  0.39710178  0.50000000  1
