# generated using pymatgen
data_TiSi3N4
_symmetry_space_group_name_H-M   'P 1'
_cell_length_a   5.42732235
_cell_length_b   7.29728352
_cell_length_c   8.79347455
_cell_angle_alpha   77.79698131
_cell_angle_beta   87.40312843
_cell_angle_gamma   79.65471905
_symmetry_Int_Tables_number   1
_chemical_formula_structural   TiSi3N4
_chemical_formula_sum   'Ti4 Si12 N16'
_cell_volume   334.85049995
_cell_formula_units_Z   4
loop_
 _symmetry_equiv_pos_site_id
 _symmetry_equiv_pos_as_xyz
  1  'x, y, z'
loop_
 _atom_site_type_symbol
 _atom_site_label
 _atom_site_symmetry_multiplicity
 _atom_site_fract_x
 _atom_site_fract_y
 _atom_site_fract_z
 _atom_site_occupancy
  Si  Si0  1  0.03792562  0.67631727  0.00241907  1
  Si  Si1  1  0.54239627  0.63310027  0.88748244  1
  Si  Si2  1  0.05076050  0.46759340  0.71436635  1
  Si  Si3  1  0.43222154  0.52150415  0.57003781  1
  Si  Si4  1  0.30594093  0.06991201  0.75708395  1
  Si  Si5  1  0.18095785  0.84308349  0.57578166  1
  Si  Si6  1  0.97229990  0.56316503  0.36742966  1
  Si  Si7  1  0.51358499  0.59368422  0.25357561  1
  Si  Si8  1  0.87400322  0.31789151  0.13245278  1
  Si  Si9  1  0.37446928  0.32371320  0.00753192  1
  Si  Si10  1  0.26620700  0.98955430  0.10744921  1
  Si  Si11  1  0.77898410  0.93296438  0.23988221  1
  Ti  Ti12  1  0.76826604  0.05981985  0.83030948  1
  Ti  Ti13  1  0.69911809  0.80332785  0.62394490  1
  Ti  Ti14  1  0.38990430  0.15168069  0.41468651  1
  Ti  Ti15  1  0.84662072  0.16899493  0.50159639  1
  N  N16  1  0.68631000  0.35858956  0.96506291  1
  N  N17  1  0.14497122  0.48132429  0.89790315  1
  N  N18  1  0.55796497  0.10938565  0.63323709  1
  N  N19  1  0.02477030  0.22008566  0.70939843  1
  N  N20  1  0.78057309  0.77539421  0.87310421  1
  N  N21  1  0.30738251  0.82757659  0.77688797  1
  N  N22  1  0.71311295  0.46367722  0.44044288  1
  N  N23  1  0.28847813  0.47402604  0.38851921  1
  N  N24  1  0.72051312  0.16551404  0.26996403  1
  N  N25  1  0.19479259  0.21048922  0.16801100  1
  N  N26  1  0.40675651  0.09942094  0.93648763  1
  N  N27  1  0.98811236  0.91436619  0.07532241  1
  N  N28  1  0.92139927  0.78915806  0.39883694  1
  N  N29  1  0.49341539  0.84807467  0.23303836  1
  N  N30  1  0.86957535  0.54761836  0.17353764  1
  N  N31  1  0.36821189  0.59899275  0.07421621  1
