# generated using pymatgen
data_Al4CrFeCoNi3
_symmetry_space_group_name_H-M   'P 1'
_cell_length_a   6.85299181
_cell_length_b   6.83120314
_cell_length_c   11.32830817
_cell_angle_alpha   76.95473886
_cell_angle_beta   73.44094578
_cell_angle_gamma   83.08630217
_symmetry_Int_Tables_number   1
_chemical_formula_structural   Al4CrFeCoNi3
_chemical_formula_sum   'Al16 Cr4 Fe4 Co4 Ni12'
_cell_volume   494.31933202
_cell_formula_units_Z   4
loop_
 _symmetry_equiv_pos_site_id
 _symmetry_equiv_pos_as_xyz
  1  'x, y, z'
loop_
 _atom_site_type_symbol
 _atom_site_label
 _atom_site_symmetry_multiplicity
 _atom_site_fract_x
 _atom_site_fract_y
 _atom_site_fract_z
 _atom_site_occupancy
  Al  Al0  1  0.01132939  0.99087837  0.00252184  1
  Al  Al1  1  0.58948031  0.10385491  0.01166509  1
  Al  Al2  1  0.12544167  0.62242094  0.99843654  1
  Al  Al3  1  0.48297248  0.50594617  0.00703775  1
  Al  Al4  1  0.86675402  0.37050732  0.00910590  1
  Al  Al5  1  0.54508473  0.27473121  0.22871692  1
  Al  Al6  1  0.96492054  0.14348450  0.21888769  1
  Al  Al7  1  0.22976341  0.31534635  0.58379742  1
  Al  Al8  1  0.62804547  0.21455613  0.58726598  1
  Al  Al9  1  0.41702578  0.82565690  0.38193558  1
  Al  Al10  1  0.10290042  0.72060121  0.60061786  1
  Al  Al11  1  0.78830540  0.68078783  0.39813589  1
  Al  Al12  1  0.48269901  0.57468987  0.61626358  1
  Al  Al13  1  0.91889889  0.21360274  0.78498250  1
  Al  Al14  1  0.78295492  0.59116177  0.79477239  1
  Al  Al15  1  0.64634627  0.96263993  0.80560460  1
  Co  Co16  1  0.19791703  0.40897869  0.20100788  1
  Co  Co17  1  0.47052498  0.65085483  0.19510976  1
  Co  Co18  1  0.87387137  0.47567057  0.59258352  1
  Co  Co19  1  0.03576995  0.84510330  0.80515693  1
  Cr  Cr20  1  0.17306594  0.55796721  0.37158185  1
  Cr  Cr21  1  0.82940382  0.54345720  0.20171128  1
  Cr  Cr22  1  0.16238365  0.46084921  0.79815089  1
  Cr  Cr23  1  0.72582390  0.83895032  0.59464827  1
  Fe  Fe24  1  0.07864991  0.76271895  0.20391879  1
  Fe  Fe25  1  0.75778462  0.74090355  0.99491975  1
  Fe  Fe26  1  0.28873679  0.08872422  0.79472043  1
  Fe  Fe27  1  0.03697287  0.90843458  0.40497159  1
  Ni  Ni28  1  0.23319356  0.25390233  0.99635062  1
  Ni  Ni29  1  0.32249571  0.02256577  0.19898054  1
  Ni  Ni30  1  0.26164366  0.16870303  0.40219986  1
  Ni  Ni31  1  0.65804809  0.05301861  0.40146386  1
  Ni  Ni32  1  0.36438793  0.86431958  0.00715082  1
  Ni  Ni33  1  0.52559646  0.45129214  0.40648218  1
  Ni  Ni34  1  0.91468632  0.31131641  0.40019401  1
  Ni  Ni35  1  0.97166283  0.07494480  0.59836191  1
  Ni  Ni36  1  0.71704619  0.91231974  0.19126646  1
  Ni  Ni37  1  0.54625497  0.33263879  0.80421379  1
  Ni  Ni38  1  0.35817265  0.94485724  0.60011985  1
  Ni  Ni39  1  0.41298410  0.71664278  0.80498762  1
