# generated using pymatgen
data_Ti5V3
_symmetry_space_group_name_H-M   'P 1'
_cell_length_a   5.21608183
_cell_length_b   9.93995316
_cell_length_c   10.56917258
_cell_angle_alpha   111.87683456
_cell_angle_beta   95.49837478
_cell_angle_gamma   89.39179851
_symmetry_Int_Tables_number   1
_chemical_formula_structural   Ti5V3
_chemical_formula_sum   'Ti20 V12'
_cell_volume   505.99768841
_cell_formula_units_Z   4
loop_
 _symmetry_equiv_pos_site_id
 _symmetry_equiv_pos_as_xyz
  1  'x, y, z'
loop_
 _atom_site_type_symbol
 _atom_site_label
 _atom_site_symmetry_multiplicity
 _atom_site_fract_x
 _atom_site_fract_y
 _atom_site_fract_z
 _atom_site_occupancy
  Ti  Ti0  1  0.99178830  0.01089298  0.99746148  1
  Ti  Ti1  1  0.88095050  0.12778270  0.31462716  1
  Ti  Ti2  1  0.71795487  0.27725937  0.13437165  1
  Ti  Ti3  1  0.41306018  0.07497115  0.42729196  1
  Ti  Ti4  1  0.35081681  0.15995519  0.21039674  1
  Ti  Ti5  1  0.18622353  0.30536719  0.02706727  1
  Ti  Ti6  1  0.98170424  0.98010405  0.50930328  1
  Ti  Ti7  1  0.93756816  0.56507935  0.15624890  1
  Ti  Ti8  1  0.75212051  0.24544976  0.63272063  1
  Ti  Ti9  1  0.60731169  0.38551715  0.44129399  1
  Ti  Ti10  1  0.40864824  0.61477210  0.05078011  1
  Ti  Ti11  1  0.08482728  0.42546586  0.35450770  1
  Ti  Ti12  1  0.80467926  0.68658147  0.47476315  1
  Ti  Ti13  1  0.68354630  0.83210360  0.26331304  1
  Ti  Ti14  1  0.64379844  0.34561674  0.91896934  1
  Ti  Ti15  1  0.50716427  0.51086217  0.75153557  1
  Ti  Ti16  1  0.29720302  0.75162096  0.38605571  1
  Ti  Ti17  1  0.15399614  0.87436651  0.18136710  1
  Ti  Ti18  1  0.04768774  0.45514891  0.84139001  1
  Ti  Ti19  1  0.68478475  0.80696476  0.77799593  1
  V  V20  1  0.87774696  0.09721965  0.79268653  1
  V  V21  1  0.44573586  0.50862850  0.24545438  1
  V  V22  1  0.44337993  0.05965363  0.89777307  1
  V  V23  1  0.29543234  0.17861435  0.71585180  1
  V  V24  1  0.18586132  0.32452127  0.55470801  1
  V  V25  1  0.97148917  0.55762541  0.65087407  1
  V  V26  1  0.56240452  0.92006630  0.05946127  1
  V  V27  1  0.33511289  0.63070333  0.56766260  1
  V  V28  1  0.82506240  0.70948955  0.97969415  1
  V  V29  1  0.53825782  0.94902332  0.61116455  1
  V  V30  1  0.23886314  0.75343731  0.87373305  1
  V  V31  1  0.14481944  0.87513538  0.69947581  1
