# generated using pymatgen
data_Ti3Al
_symmetry_space_group_name_H-M   'P 1'
_cell_length_a   8.31438038
_cell_length_b   8.31438038
_cell_length_c   5.89746534
_cell_angle_alpha   90.00000000
_cell_angle_beta   90.00000000
_cell_angle_gamma   138.50007605
_symmetry_Int_Tables_number   1
_chemical_formula_structural   Ti3Al
_chemical_formula_sum   'Ti12 Al4'
_cell_volume   270.14012471
_cell_formula_units_Z   4
loop_
 _symmetry_equiv_pos_site_id
 _symmetry_equiv_pos_as_xyz
  1  'x, y, z'
loop_
 _atom_site_type_symbol
 _atom_site_label
 _atom_site_symmetry_multiplicity
 _atom_site_fract_x
 _atom_site_fract_y
 _atom_site_fract_z
 _atom_site_occupancy
  Ti  Ti0  1  0.61966559  0.87672373  0.75267245  1
  Ti  Ti1  1  0.25328409  0.75669947  0.50000000  1
  Ti  Ti2  1  0.12672373  0.36966559  0.75267245  1
  Ti  Ti3  1  0.61966559  0.87672373  0.24732755  1
  Ti  Ti4  1  0.49550016  0.49070895  0.50000000  1
  Ti  Ti5  1  0.37076123  0.12076123  0.74879307  1
  Ti  Ti6  1  0.25381492  0.76445227  0.00000000  1
  Ti  Ti7  1  0.12672373  0.36966559  0.24732755  1
  Ti  Ti8  1  0.00669947  0.00328409  0.50000000  1
  Ti  Ti9  1  0.74070895  0.24550016  0.50000000  1
  Ti  Ti10  1  0.37076123  0.12076123  0.25120693  1
  Ti  Ti11  1  0.01445227  0.00381492  0.00000000  1
  Al  Al12  1  0.87253618  0.62253618  0.75437239  1
  Al  Al13  1  0.87253618  0.62253618  0.24562761  1
  Al  Al14  1  0.50204365  0.50412299  0.00000000  1
  Al  Al15  1  0.75412299  0.25204365  0.00000000  1
