# generated using pymatgen
data_Ti3V
_symmetry_space_group_name_H-M   'P 1'
_cell_length_a   7.68179653
_cell_length_b   7.78066222
_cell_length_c   9.77781178
_cell_angle_alpha   105.34588141
_cell_angle_beta   105.10917246
_cell_angle_gamma   70.74263945
_symmetry_Int_Tables_number   1
_chemical_formula_structural   Ti3V
_chemical_formula_sum   'Ti24 V8'
_cell_volume   522.30647115
_cell_formula_units_Z   8
loop_
 _symmetry_equiv_pos_site_id
 _symmetry_equiv_pos_as_xyz
  1  'x, y, z'
loop_
 _atom_site_type_symbol
 _atom_site_label
 _atom_site_symmetry_multiplicity
 _atom_site_fract_x
 _atom_site_fract_y
 _atom_site_fract_z
 _atom_site_occupancy
  Ti  Ti0  1  0.28852917  0.32723276  0.74668183  1
  Ti  Ti1  1  0.14476236  0.08944066  0.52495907  1
  Ti  Ti2  1  0.19732598  0.70012610  0.73843280  1
  Ti  Ti3  1  0.99767534  0.48812215  0.49837784  1
  Ti  Ti4  1  0.68914046  0.17173969  0.74316531  1
  Ti  Ti5  1  0.49561812  0.02439810  0.47039270  1
  Ti  Ti6  1  0.58494397  0.54528795  0.74784057  1
  Ti  Ti7  1  0.18573603  0.18673575  0.26525504  1
  Ti  Ti8  1  0.43870889  0.94331644  0.76190062  1
  Ti  Ti9  1  0.23579204  0.71656982  0.47148430  1
  Ti  Ti10  1  0.05732309  0.55013285  0.21529783  1
  Ti  Ti11  1  0.75247836  0.26257792  0.50149516  1
  Ti  Ti12  1  0.54636130  0.05960150  0.20785605  1
  Ti  Ti13  1  0.83427245  0.79795836  0.77990082  1
  Ti  Ti14  1  0.61105567  0.67783567  0.52449421  1
  Ti  Ti15  1  0.45108890  0.43712834  0.28487745  1
  Ti  Ti16  1  0.25527119  0.25677586  0.00454384  1
  Ti  Ti17  1  0.30747239  0.79242127  0.22338552  1
  Ti  Ti18  1  0.80120534  0.31846654  0.21255128  1
  Ti  Ti19  1  0.88276605  0.88768970  0.52952905  1
  Ti  Ti20  1  0.70119195  0.70177082  0.27711130  1
  Ti  Ti21  1  0.49856814  0.49666140  0.00254804  1
  Ti  Ti22  1  0.93213568  0.95098096  0.25967525  1
  Ti  Ti23  1  0.73982095  0.74728799  0.01325250  1
  V  V24  1  0.06651068  0.08249393  0.77752430  1
  V  V25  1  0.37485600  0.38183285  0.52218556  1
  V  V26  1  0.00314631  0.00694590  0.00711739  1
  V  V27  1  0.94499768  0.42206693  0.76404713  1
  V  V28  1  0.11714269  0.62036461  0.97486242  1
  V  V29  1  0.66070303  0.09990352  0.98929271  1
  V  V30  1  0.33520913  0.88499407  0.98793534  1
  V  V31  1  0.86819067  0.37113959  0.97202678  1
