# generated using pymatgen
data_Ti7Al
_symmetry_space_group_name_H-M   'P 1'
_cell_length_a   5.02415814
_cell_length_b   9.59836133
_cell_length_c   11.79770706
_cell_angle_alpha   102.01097668
_cell_angle_beta   97.60705939
_cell_angle_gamma   80.17321763
_symmetry_Int_Tables_number   1
_chemical_formula_structural   Ti7Al
_chemical_formula_sum   'Ti28 Al4'
_cell_volume   545.53299762
_cell_formula_units_Z   4
loop_
 _symmetry_equiv_pos_site_id
 _symmetry_equiv_pos_as_xyz
  1  'x, y, z'
loop_
 _atom_site_type_symbol
 _atom_site_label
 _atom_site_symmetry_multiplicity
 _atom_site_fract_x
 _atom_site_fract_y
 _atom_site_fract_z
 _atom_site_occupancy
  Al  Al0  1  0.43845207  0.43704004  0.75109729  1
  Al  Al1  1  0.74397569  0.74788532  0.99890994  1
  Al  Al2  1  0.25422515  0.25044433  0.00081696  1
  Al  Al3  1  0.99945042  0.99981945  0.00060792  1
  Ti  Ti4  1  0.46838211  0.96859165  0.87722314  1
  Ti  Ti5  1  0.93554337  0.93698533  0.74830393  1
  Ti  Ti6  1  0.20620220  0.71703909  0.87470740  1
  Ti  Ti7  1  0.96916988  0.46702259  0.87443094  1
  Ti  Ti8  1  0.66767065  0.68569922  0.74885382  1
  Ti  Ti9  1  0.40508852  0.90596290  0.62714664  1
  Ti  Ti10  1  0.87509559  0.87539138  0.50030437  1
  Ti  Ti11  1  0.72917285  0.21851545  0.87590624  1
  Ti  Ti12  1  0.14945344  0.65470730  0.62687549  1
  Ti  Ti13  1  0.90891376  0.40724739  0.62958671  1
  Ti  Ti14  1  0.62349053  0.62871038  0.49803600  1
  Ti  Ti15  1  0.34127951  0.84446011  0.37269558  1
  Ti  Ti16  1  0.80664541  0.80961788  0.24743665  1
  Ti  Ti17  1  0.20636394  0.18820058  0.75082569  1
  Ti  Ti18  1  0.66322757  0.15795661  0.62726823  1
  Ti  Ti19  1  0.37923701  0.37648638  0.50334240  1
  Ti  Ti20  1  0.09456908  0.59383555  0.37320874  1
  Ti  Ti21  1  0.84867591  0.34441807  0.37592078  1
  Ti  Ti22  1  0.56367610  0.56317214  0.25034441  1
  Ti  Ti23  1  0.27744258  0.78186293  0.12263482  1
  Ti  Ti24  1  0.12328698  0.12232717  0.49910121  1
  Ti  Ti25  1  0.59254412  0.09473980  0.37246925  1
  Ti  Ti26  1  0.32051653  0.31587571  0.25006218  1
  Ti  Ti27  1  0.03126272  0.53060846  0.11975352  1
  Ti  Ti28  1  0.78446306  0.28148299  0.12522689  1
  Ti  Ti29  1  0.49909187  0.49856558  0.99837858  1
  Ti  Ti30  1  0.06197476  0.06442344  0.25360361  1
  Ti  Ti31  1  0.53145659  0.03090474  0.12492063  1
