# generated using pymatgen
data_TiAl
_symmetry_space_group_name_H-M   'P 1'
_cell_length_a   8.35137736
_cell_length_b   8.33417365
_cell_length_c   5.82931177
_cell_angle_alpha   90.43749940
_cell_angle_beta   90.96613916
_cell_angle_gamma   139.22089046
_symmetry_Int_Tables_number   1
_chemical_formula_structural   TiAl
_chemical_formula_sum   'Ti8 Al8'
_cell_volume   264.83380716
_cell_formula_units_Z   8
loop_
 _symmetry_equiv_pos_site_id
 _symmetry_equiv_pos_as_xyz
  1  'x, y, z'
loop_
 _atom_site_type_symbol
 _atom_site_label
 _atom_site_symmetry_multiplicity
 _atom_site_fract_x
 _atom_site_fract_y
 _atom_site_fract_z
 _atom_site_occupancy
  Ti  Ti0  1  0.61207256  0.87270804  0.75431320  1
  Ti  Ti1  1  0.24896254  0.75801385  0.49967887  1
  Ti  Ti2  1  0.62449730  0.86682681  0.25179948  1
  Ti  Ti3  1  0.50050270  0.50817319  0.49820052  1
  Ti  Ti4  1  0.12245025  0.37867878  0.25669781  1
  Ti  Ti5  1  0.00254975  0.99632122  0.49330219  1
  Ti  Ti6  1  0.87603746  0.61698615  0.25032113  1
  Ti  Ti7  1  0.51292744  0.50229196  0.99568680  1
  Al  Al8  1  0.13172997  0.37724906  0.74765381  1
  Al  Al9  1  0.87825967  0.62778092  0.74721230  1
  Al  Al10  1  0.37740656  0.12720361  0.74725317  1
  Al  Al11  1  0.24674033  0.74721908  0.00278770  1
  Al  Al12  1  0.75403626  0.24984911  0.49861071  1
  Al  Al13  1  0.37096374  0.12515089  0.25138929  1
  Al  Al14  1  0.99327003  0.99775094  0.00234619  1
  Al  Al15  1  0.74759344  0.24779639  0.00274683  1
