# generated using pymatgen
data_TiV
_symmetry_space_group_name_H-M   'P 1'
_cell_length_a   7.02110985
_cell_length_b   8.04182851
_cell_length_c   9.30837966
_cell_angle_alpha   73.78542750
_cell_angle_beta   76.12920079
_cell_angle_gamma   85.08003858
_symmetry_Int_Tables_number   1
_chemical_formula_structural   TiV
_chemical_formula_sum   'Ti16 V16'
_cell_volume   489.85236692
_cell_formula_units_Z   16
loop_
 _symmetry_equiv_pos_site_id
 _symmetry_equiv_pos_as_xyz
  1  'x, y, z'
loop_
 _atom_site_type_symbol
 _atom_site_label
 _atom_site_symmetry_multiplicity
 _atom_site_fract_x
 _atom_site_fract_y
 _atom_site_fract_z
 _atom_site_occupancy
  Ti  Ti0  1  0.55510720  0.90445181  0.12756731  1
  Ti  Ti1  1  0.87365241  0.68780251  0.19630039  1
  Ti  Ti2  1  0.60956369  0.57700262  0.04968464  1
  Ti  Ti3  1  0.90779948  0.34932601  0.12362511  1
  Ti  Ti4  1  0.39588684  0.93321212  0.44227063  1
  Ti  Ti5  1  0.12620805  0.81468732  0.32962664  1
  Ti  Ti6  1  0.45508704  0.58867762  0.35651400  1
  Ti  Ti7  1  0.21435186  0.47656431  0.19393649  1
  Ti  Ti8  1  0.24726774  0.14178250  0.11401545  1
  Ti  Ti9  1  0.80133720  0.02311417  0.27555296  1
  Ti  Ti10  1  0.00819012  0.49084283  0.50287084  1
  Ti  Ti11  1  0.06693256  0.15900333  0.40975893  1
  Ti  Ti12  1  0.86049063  0.18423353  0.69677827  1
  Ti  Ti13  1  0.06960041  0.65279006  0.90123292  1
  Ti  Ti14  1  0.12061586  0.31934097  0.81062266  1
  Ti  Ti15  1  0.44082467  0.09321725  0.83864181  1
  V  V16  1  0.27378857  0.80507331  0.02542623  1
  V  V17  1  0.93435651  0.83201519  0.60996129  1
  V  V18  1  0.69977629  0.71133425  0.49354518  1
  V  V19  1  0.73045377  0.35027094  0.41031607  1
  V  V20  1  0.50860831  0.25578067  0.25503349  1
  V  V21  1  0.99123799  0.99946239  0.98125911  1
  V  V22  1  0.18540617  0.96926943  0.71881950  1
  V  V23  1  0.76622561  0.86897733  0.85474904  1
  V  V24  1  0.49735945  0.75407003  0.74554099  1
  V  V25  1  0.25861664  0.63104345  0.62247708  1
  V  V26  1  0.79599450  0.53775732  0.77335981  1
  V  V27  1  0.55661746  0.41297582  0.64877936  1
  V  V28  1  0.33051093  0.26292480  0.53725666  1
  V  V29  1  0.62326762  0.05164446  0.56670685  1
  V  V30  1  0.40680357  0.43405648  0.91009356  1
  V  V31  1  0.68806086  0.22729516  0.97767672  1
