# generated using pymatgen
data_Ti7V
_symmetry_space_group_name_H-M   'P 1'
_cell_length_a   5.00423660
_cell_length_b   9.50046359
_cell_length_c   11.82797596
_cell_angle_alpha   102.61395587
_cell_angle_beta   97.96778171
_cell_angle_gamma   80.64054623
_symmetry_Int_Tables_number   1
_chemical_formula_structural   Ti7V
_chemical_formula_sum   'Ti28 V4'
_cell_volume   538.34133866
_cell_formula_units_Z   4
loop_
 _symmetry_equiv_pos_site_id
 _symmetry_equiv_pos_as_xyz
  1  'x, y, z'
loop_
 _atom_site_type_symbol
 _atom_site_label
 _atom_site_symmetry_multiplicity
 _atom_site_fract_x
 _atom_site_fract_y
 _atom_site_fract_z
 _atom_site_occupancy
  V  V0  1  0.43594885  0.43699628  0.74849874  1
  V  V1  1  0.76833711  0.75182396  0.00112188  1
  V  V2  1  0.23141416  0.24791143  0.99966068  1
  V  V3  1  0.99854099  0.99807716  -0.00008994  1
  Ti  Ti4  1  0.46856041  0.96891325  0.88165829  1
  Ti  Ti5  1  0.93882431  0.93850984  0.75549040  1
  Ti  Ti6  1  0.22278371  0.71814245  0.87796646  1
  Ti  Ti7  1  0.96514923  0.46708601  0.87428261  1
  Ti  Ti8  1  0.68480618  0.68601138  0.75624678  1
  Ti  Ti9  1  0.40822373  0.90772123  0.62966052  1
  Ti  Ti10  1  0.87679766  0.87569963  0.50121224  1
  Ti  Ti11  1  0.71381561  0.21710209  0.87808166  1
  Ti  Ti12  1  0.15931807  0.65542519  0.62893369  1
  Ti  Ti13  1  0.90756537  0.40690587  0.62745447  1
  Ti  Ti14  1  0.62633878  0.62541107  0.50152780  1
  Ti  Ti15  1  0.34633395  0.84375804  0.37434043  1
  Ti  Ti16  1  0.81589439  0.81260611  0.24544473  1
  Ti  Ti17  1  0.19276854  0.19123457  0.75561475  1
  Ti  Ti18  1  0.65535087  0.16010008  0.62856452  1
  Ti  Ti19  1  0.37481494  0.37562769  0.50142691  1
  Ti  Ti20  1  0.09332067  0.59387319  0.37425207  1
  Ti  Ti21  1  0.84284268  0.34280018  0.37292651  1
  Ti  Ti22  1  0.56271658  0.56258771  0.24786221  1
  Ti  Ti23  1  0.28845937  0.78283923  0.11983281  1
  Ti  Ti24  1  0.12458513  0.12502062  0.50046008  1
  Ti  Ti25  1  0.59292972  0.09389232  0.37331217  1
  Ti  Ti26  1  0.30926058  0.31258005  0.24493725  1
  Ti  Ti27  1  0.02927334  0.53151441  0.11982008  1
  Ti  Ti28  1  0.77716671  0.27821929  0.11924631  1
  Ti  Ti29  1  0.49661203  0.49754922  0.99421654  1
  Ti  Ti30  1  0.06218130  0.06203284  0.24616288  1
  Ti  Ti31  1  0.52906498  0.03202761  0.11987342  1
