# generated using pymatgen
data_Ti5V3
_symmetry_space_group_name_H-M   'P 1'
_cell_length_a   5.63915465
_cell_length_b   4.26704511
_cell_length_c   10.74878425
_cell_angle_alpha   90.00000000
_cell_angle_beta   101.38312504
_cell_angle_gamma   90.00000000
_symmetry_Int_Tables_number   1
_chemical_formula_structural   Ti5V3
_chemical_formula_sum   'Ti10 V6'
_cell_volume   253.55523904
_cell_formula_units_Z   2
loop_
 _symmetry_equiv_pos_site_id
 _symmetry_equiv_pos_as_xyz
  1  'x, y, z'
loop_
 _atom_site_type_symbol
 _atom_site_label
 _atom_site_symmetry_multiplicity
 _atom_site_fract_x
 _atom_site_fract_y
 _atom_site_fract_z
 _atom_site_occupancy
  V  V0  1  0.62128843  0.00000000  0.97285576  1
  V  V1  1  0.06584932  0.50000000  0.14067702  1
  V  V2  1  0.01438859  0.50000000  0.37882266  1
  V  V3  1  0.67643704  0.00000000  0.75250094  1
  V  V4  1  0.83804613  0.50000000  0.88405570  1
  V  V5  1  0.34890683  0.50000000  0.88781206  1
  Ti  Ti6  1  0.55551620  0.50000000  0.12239505  1
  Ti  Ti7  1  0.85518073  0.00000000  0.22961138  1
  Ti  Ti8  1  0.12430502  0.00000000  0.99384501  1
  Ti  Ti9  1  0.34528148  0.00000000  0.23762935  1
  Ti  Ti10  1  0.50662392  0.50000000  0.38736341  1
  Ti  Ti11  1  0.78786114  0.00000000  0.48484057  1
  Ti  Ti12  1  0.89699000  0.50000000  0.64022116  1
  Ti  Ti13  1  0.27485478  0.00000000  0.49107227  1
  Ti  Ti14  1  0.41095245  0.50000000  0.64572389  1
  Ti  Ti15  1  0.17751791  0.00000000  0.75057376  1
