# generated using pymatgen
data_TiV
_symmetry_space_group_name_H-M   'P 1'
_cell_length_a   6.98592102
_cell_length_b   6.89887727
_cell_length_c   6.28033825
_cell_angle_alpha   89.85896022
_cell_angle_beta   90.60248766
_cell_angle_gamma   126.18064025
_symmetry_Int_Tables_number   1
_chemical_formula_structural   TiV
_chemical_formula_sum   'Ti8 V8'
_cell_volume   244.29578567
_cell_formula_units_Z   8
loop_
 _symmetry_equiv_pos_site_id
 _symmetry_equiv_pos_as_xyz
  1  'x, y, z'
loop_
 _atom_site_type_symbol
 _atom_site_label
 _atom_site_symmetry_multiplicity
 _atom_site_fract_x
 _atom_site_fract_y
 _atom_site_fract_z
 _atom_site_occupancy
  Ti  Ti0  1  0.64956038  0.89336517  0.75721233  1
  Ti  Ti1  1  0.24964831  0.73927768  0.50671985  1
  Ti  Ti2  1  0.63377623  0.89131591  0.24732827  1
  Ti  Ti3  1  0.49122377  0.48368409  0.50267173  1
  Ti  Ti4  1  0.08339210  0.34875389  0.23484312  1
  Ti  Ti5  1  0.04160790  0.02624611  0.51515688  1
  Ti  Ti6  1  0.87535169  0.63572232  0.24328015  1
  Ti  Ti7  1  0.47543962  0.48163483  0.99278767  1
  V  V8  1  0.08747708  0.36147213  0.76557009  1
  V  V9  1  0.87612688  0.62860825  0.75754998  1
  V  V10  1  0.39233562  0.11545112  0.76161380  1
  V  V11  1  0.24887312  0.74639175  0.99245002  1
  V  V12  1  0.73852618  0.25991028  0.51263763  1
  V  V13  1  0.38647382  0.11508972  0.23736237  1
  V  V14  1  0.03752292  0.01352787  0.98442991  1
  V  V15  1  0.73266438  0.25954888  0.98838620  1
