# generated using pymatgen
data_Ti3Al
_symmetry_space_group_name_H-M   'P 1'
_cell_length_a   8.31438038
_cell_length_b   8.31438038
_cell_length_c   5.89746534
_cell_angle_alpha   90.00000000
_cell_angle_beta   90.00000000
_cell_angle_gamma   138.50007605
_symmetry_Int_Tables_number   1
_chemical_formula_structural   Ti3Al
_chemical_formula_sum   'Ti12 Al4'
_cell_volume   270.14012471
_cell_formula_units_Z   4
loop_
 _symmetry_equiv_pos_site_id
 _symmetry_equiv_pos_as_xyz
  1  'x, y, z'
loop_
 _atom_site_type_symbol
 _atom_site_label
 _atom_site_symmetry_multiplicity
 _atom_site_fract_x
 _atom_site_fract_y
 _atom_site_fract_z
 _atom_site_occupancy
  Ti  Ti0  1  0.61975292  0.87672221  0.75196651  1
  Ti  Ti1  1  0.25298197  0.75626203  0.50000000  1
  Ti  Ti2  1  0.12672221  0.36975292  0.75196651  1
  Ti  Ti3  1  0.61975292  0.87672221  0.24803349  1
  Ti  Ti4  1  0.49566106  0.49147505  0.50000000  1
  Ti  Ti5  1  0.37064004  0.12064004  0.74917676  1
  Ti  Ti6  1  0.25377806  0.76430827  -0.00000000  1
  Ti  Ti7  1  0.12672221  0.36975292  0.24803349  1
  Ti  Ti8  1  0.00626203  0.00298197  0.50000000  1
  Ti  Ti9  1  0.74147505  0.24566106  0.50000000  1
  Ti  Ti10  1  0.37064004  0.12064004  0.25082324  1
  Ti  Ti11  1  0.01430827  0.00377806  -0.00000000  1
  Al  Al12  1  0.87257106  0.62257106  0.75425024  1
  Al  Al13  1  0.87257106  0.62257106  0.24574976  1
  Al  Al14  1  0.50212139  0.50403970  -0.00000000  1
  Al  Al15  1  0.75403970  0.25212139  -0.00000000  1
