# generated using pymatgen
data_Ti5Al3
_symmetry_space_group_name_H-M   'P 1'
_cell_length_a   5.62180506
_cell_length_b   4.66263016
_cell_length_c   10.53718067
_cell_angle_alpha   90.00000000
_cell_angle_beta   105.47041243
_cell_angle_gamma   90.00000000
_symmetry_Int_Tables_number   1
_chemical_formula_structural   Ti5Al3
_chemical_formula_sum   'Ti10 Al6'
_cell_volume   266.19741057
_cell_formula_units_Z   2
loop_
 _symmetry_equiv_pos_site_id
 _symmetry_equiv_pos_as_xyz
  1  'x, y, z'
loop_
 _atom_site_type_symbol
 _atom_site_label
 _atom_site_symmetry_multiplicity
 _atom_site_fract_x
 _atom_site_fract_y
 _atom_site_fract_z
 _atom_site_occupancy
  Al  Al0  1  0.55365251  0.00000000  0.97885689  1
  Al  Al1  1  0.13432730  0.50000000  0.14439008  1
  Al  Al2  1  0.00399682  0.50000000  0.39482005  1
  Al  Al3  1  0.67657245  0.00000000  0.73371639  1
  Al  Al4  1  0.75451574  0.50000000  0.89028260  1
  Al  Al5  1  0.26016341  0.50000000  0.89026689  1
  Ti  Ti6  1  0.62564478  0.50000000  0.13417223  1
  Ti  Ti7  1  0.93367388  0.00000000  0.23616220  1
  Ti  Ti8  1  0.06383934  0.00000000  0.98492733  1
  Ti  Ti9  1  0.42625403  0.00000000  0.22681627  1
  Ti  Ti10  1  0.50292571  0.50000000  0.38569226  1
  Ti  Ti11  1  0.81076670  0.00000000  0.49005282  1
  Ti  Ti12  1  0.89004242  0.50000000  0.65643785  1
  Ti  Ti13  1  0.30818945  0.00000000  0.48622134  1
  Ti  Ti14  1  0.37851264  0.50000000  0.63488224  1
  Ti  Ti15  1  0.17692278  0.00000000  0.73230255  1
