# generated using pymatgen
data_Ti21Al3V
_symmetry_space_group_name_H-M   'P 1'
_cell_length_a   7.49459698
_cell_length_b   8.93614679
_cell_length_c   13.83406591
_cell_angle_alpha   104.04900496
_cell_angle_beta   104.75980752
_cell_angle_gamma   98.75375344
_symmetry_Int_Tables_number   1
_chemical_formula_structural   Ti21Al3V
_chemical_formula_sum   'Ti42 Al6 V2'
_cell_volume   846.21014098
_cell_formula_units_Z   2
loop_
 _symmetry_equiv_pos_site_id
 _symmetry_equiv_pos_as_xyz
  1  'x, y, z'
loop_
 _atom_site_type_symbol
 _atom_site_label
 _atom_site_symmetry_multiplicity
 _atom_site_fract_x
 _atom_site_fract_y
 _atom_site_fract_z
 _atom_site_occupancy
  Al  Al0  1  0.72044431  0.31806527  0.44881529  1
  Al  Al1  1  0.99684359  0.36596734  0.81519707  1
  Al  Al2  1  0.19130561  0.25893185  0.97483591  1
  Al  Al3  1  0.91228560  0.59310043  0.40473822  1
  Al  Al4  1  0.49781334  0.62563282  0.68456156  1
  Al  Al5  1  0.38370205  0.52849907  0.93484301  1
  Ti  Ti6  1  0.00572942  0.97299597  0.01765845  1
  Ti  Ti7  1  0.69137624  0.11364405  0.03974576  1
  Ti  Ti8  1  0.40458163  0.13640660  0.12989659  1
  Ti  Ti9  1  0.08317489  0.26705765  0.15789156  1
  Ti  Ti10  1  0.62002246  0.02413463  0.29846171  1
  Ti  Ti11  1  0.31669056  0.16721817  0.31925884  1
  Ti  Ti12  1  0.02088093  0.16135574  0.41336845  1
  Ti  Ti13  1  0.50958673  0.03855993  0.48079179  1
  Ti  Ti14  1  0.22826109  0.04623859  0.57765918  1
  Ti  Ti15  1  0.07815993  0.06272768  0.75566445  1
  Ti  Ti16  1  0.59397367  0.41210400  0.09072048  1
  Ti  Ti17  1  0.29507757  0.55696170  0.13453231  1
  Ti  Ti18  1  0.98419011  0.55879597  0.20814803  1
  Ti  Ti19  1  0.80963153  0.29030502  0.25898732  1
  Ti  Ti20  1  0.51681659  0.43947996  0.28573386  1
  Ti  Ti21  1  0.22055861  0.46478865  0.37377682  1
  Ti  Ti22  1  0.41855515  0.32997361  0.53412919  1
  Ti  Ti23  1  0.10233910  0.47563488  0.56072677  1
  Ti  Ti24  1  0.89864744  0.19228456  0.60017763  1
  Ti  Ti25  1  0.61473986  0.20653579  0.70019193  1
  Ti  Ti26  1  0.29440572  0.34893000  0.72495486  1
  Ti  Ti27  1  0.81393481  0.09690361  0.85892561  1
  Ti  Ti28  1  0.49402306  0.22820381  0.88210947  1
  Ti  Ti29  1  0.78500174  0.67772144  0.05624184  1
  Ti  Ti30  1  0.47625788  0.82386244  0.07982591  1
  Ti  Ti31  1  0.21341321  0.85839029  0.18303908  1
  Ti  Ti32  1  0.69763375  0.71866856  0.25094482  1
  Ti  Ti33  1  0.41858093  0.73406154  0.35000932  1
  Ti  Ti34  1  0.10556432  0.86329176  0.36385789  1
  Ti  Ti35  1  0.60555078  0.60242819  0.49792717  1
  Ti  Ti36  1  0.01132091  0.77093311  0.62347267  1
  Ti  Ti37  1  0.82184525  0.49581462  0.66479553  1
  Ti  Ti38  1  0.20158531  0.64511834  0.77646717  1
  Ti  Ti39  1  0.67489312  0.50006506  0.84504652  1
  Ti  Ti40  1  0.07003995  0.65680072  0.96471357  1
  Ti  Ti41  1  0.88442962  0.98849458  0.19660522  1
  Ti  Ti42  1  0.82289958  0.88756698  0.46390711  1
  Ti  Ti43  1  0.67403871  0.89423011  0.63150800  1
  Ti  Ti44  1  0.40661464  0.92910389  0.74095741  1
  Ti  Ti45  1  0.87733276  0.78788833  0.80306587  1
  Ti  Ti46  1  0.59497906  0.81107637  0.90041830  1
  Ti  Ti47  1  0.28144038  0.95410863  0.91676016  1
  V  V48  1  0.87174753  0.37868146  0.99501351  1
  V  V49  1  0.28707898  0.74025628  0.52892079  1
