# generated using pymatgen
data_Ti5Al3
_symmetry_space_group_name_H-M   'P 1'
_cell_length_a   11.27909874
_cell_length_b   11.34975637
_cell_length_c   8.29482445
_cell_angle_alpha   102.83627541
_cell_angle_beta   110.64862903
_cell_angle_gamma   115.69446177
_symmetry_Int_Tables_number   1
_chemical_formula_structural   Ti5Al3
_chemical_formula_sum   'Ti30 Al18'
_cell_volume   801.94869301
_cell_formula_units_Z   6
loop_
 _symmetry_equiv_pos_site_id
 _symmetry_equiv_pos_as_xyz
  1  'x, y, z'
loop_
 _atom_site_type_symbol
 _atom_site_label
 _atom_site_symmetry_multiplicity
 _atom_site_fract_x
 _atom_site_fract_y
 _atom_site_fract_z
 _atom_site_occupancy
  Al  Al0  1  0.00828184  -0.00246031  0.02428067  1
  Al  Al1  1  0.98718052  0.00922444  0.69041866  1
  Al  Al2  1  0.03900524  0.26029342  0.02998609  1
  Al  Al3  1  0.02598579  0.49619426  0.99823758  1
  Al  Al4  1  0.00568202  0.47802885  0.31774819  1
  Al  Al5  1  0.00620416  0.73935338  0.00915827  1
  Al  Al6  1  0.98680380  0.76125569  0.68046522  1
  Al  Al7  1  0.27413482  0.24914438  0.99765726  1
  Al  Al8  1  0.49716865  0.98843891  0.31496017  1
  Al  Al9  1  0.51157478  0.23205955  0.97872810  1
  Al  Al10  1  0.50125059  0.48765376  0.96742590  1
  Al  Al11  1  0.51092139  0.50413931  0.31919481  1
  Al  Al12  1  0.48512303  0.78502648  0.68092201  1
  Al  Al13  1  0.75373836  0.96843028  0.01444842  1
  Al  Al14  1  0.76643102  0.22198558  0.00062238  1
  Al  Al15  1  0.75268598  0.22477021  0.34090555  1
  Al  Al16  1  0.73861078  0.28052058  0.67791800  1
  Al  Al17  1  0.75148112  0.47991127  0.32320222  1
  Ti  Ti18  1  0.99631309  0.98390799  0.35107281  1
  Ti  Ti19  1  -0.00156852  0.23069018  0.33368074  1
  Ti  Ti20  1  0.98091201  0.26263505  0.67785075  1
  Ti  Ti21  1  0.97155673  0.49717321  0.64439625  1
  Ti  Ti22  1  0.99143615  0.71337412  0.33310623  1
  Ti  Ti23  1  0.26470553  0.00645665  0.01356742  1
  Ti  Ti24  1  0.25677297  0.01089176  0.34534230  1
  Ti  Ti25  1  0.22209161  0.99417295  0.64864369  1
  Ti  Ti26  1  0.26973194  0.26714445  0.33818920  1
  Ti  Ti27  1  0.21339299  0.24576371  0.64457381  1
  Ti  Ti28  1  0.26888441  0.49793942  0.00786111  1
  Ti  Ti29  1  0.27797384  0.52305797  0.35235395  1
  Ti  Ti30  1  0.23768460  0.50382919  0.66210425  1
  Ti  Ti31  1  0.24111964  0.73868512  0.96834797  1
  Ti  Ti32  1  0.25787162  0.76023333  0.33588076  1
  Ti  Ti33  1  0.22008754  0.74746546  0.64451169  1
  Ti  Ti34  1  0.50587420  0.98525464  0.98051803  1
  Ti  Ti35  1  0.49222449  0.05203662  0.66132456  1
  Ti  Ti36  1  0.52015480  0.25301486  0.33439739  1
  Ti  Ti37  1  0.48566975  0.29102492  0.65762101  1
  Ti  Ti38  1  0.49028789  0.53143471  0.63895097  1
  Ti  Ti39  1  0.50260170  0.74316682  0.01586302  1
  Ti  Ti40  1  0.50535323  0.74887367  0.34859396  1
  Ti  Ti41  1  0.76595718  0.98232094  0.36159110  1
  Ti  Ti42  1  0.74096572  0.03192980  0.69566485  1
  Ti  Ti43  1  0.76422226  0.47988731  0.00166315  1
  Ti  Ti44  1  0.72232016  0.52563899  0.64996370  1
  Ti  Ti45  1  0.74421954  0.71682552  0.98548296  1
  Ti  Ti46  1  0.76540633  0.73834005  0.33602716  1
  Ti  Ti47  1  0.72351273  0.77286056  0.66457571  1
