# generated using pymatgen
data_Ti5Al3
_symmetry_space_group_name_H-M   'P 1'
_cell_length_a   11.27909874
_cell_length_b   11.34975637
_cell_length_c   8.29482445
_cell_angle_alpha   102.83627541
_cell_angle_beta   110.64862903
_cell_angle_gamma   115.69446177
_symmetry_Int_Tables_number   1
_chemical_formula_structural   Ti5Al3
_chemical_formula_sum   'Ti30 Al18'
_cell_volume   801.94869301
_cell_formula_units_Z   6
loop_
 _symmetry_equiv_pos_site_id
 _symmetry_equiv_pos_as_xyz
  1  'x, y, z'
loop_
 _atom_site_type_symbol
 _atom_site_label
 _atom_site_symmetry_multiplicity
 _atom_site_fract_x
 _atom_site_fract_y
 _atom_site_fract_z
 _atom_site_occupancy
  Al  Al0  1  0.01239129  -0.01765748  0.01036748  1
  Al  Al1  1  0.97786307  0.01606661  0.67689793  1
  Al  Al2  1  0.03547289  0.24045250  0.00956790  1
  Al  Al3  1  0.03048245  0.48084316  -0.00030086  1
  Al  Al4  1  -0.00157285  0.49466336  0.32175812  1
  Al  Al5  1  0.01734530  0.72387289  -0.00615461  1
  Al  Al6  1  0.97235959  0.76774154  0.66814246  1
  Al  Al7  1  0.27752176  0.23538466  0.98909688  1
  Al  Al8  1  0.49481266  -0.00029703  0.33605749  1
  Al  Al9  1  0.51986034  0.22600630  0.98465682  1
  Al  Al10  1  0.52404089  0.47637405  0.99024863  1
  Al  Al11  1  0.50117714  0.50180981  0.32806500  1
  Al  Al12  1  0.47601611  0.78326699  0.67684251  1
  Al  Al13  1  0.76274464  0.96693552  0.00935012  1
  Al  Al14  1  0.77248974  0.22569574  -0.00336405  1
  Al  Al15  1  0.75645438  0.24765459  0.34085908  1
  Al  Al16  1  0.73807518  0.27046101  0.67137687  1
  Al  Al17  1  0.74885348  0.49131194  0.31752081  1
  Ti  Ti18  1  0.99541839  0.99934806  0.34868932  1
  Ti  Ti19  1  -0.00663831  0.24469844  0.32831989  1
  Ti  Ti20  1  0.98786625  0.26743479  0.66863446  1
  Ti  Ti21  1  0.96905253  0.51176093  0.66128600  1
  Ti  Ti22  1  0.99116054  0.73962451  0.32944785  1
  Ti  Ti23  1  0.26926087  -0.01050021  0.00180521  1
  Ti  Ti24  1  0.23948757  -0.00262955  0.32795982  1
  Ti  Ti25  1  0.21905803  0.00617186  0.65298455  1
  Ti  Ti26  1  0.26389627  0.25887368  0.32713588  1
  Ti  Ti27  1  0.23102734  0.27546847  0.65090609  1
  Ti  Ti28  1  0.28137753  0.48935279  0.00771378  1
  Ti  Ti29  1  0.26559387  0.51391704  0.35250019  1
  Ti  Ti30  1  0.21279839  0.51339323  0.65652793  1
  Ti  Ti31  1  0.27519146  0.73587074  0.00121245  1
  Ti  Ti32  1  0.24349889  0.74766300  0.33222879  1
  Ti  Ti33  1  0.22739661  0.77092398  0.67716299  1
  Ti  Ti34  1  0.52299478  0.98848113  0.00898912  1
  Ti  Ti35  1  0.48058336  0.03071348  0.66665700  1
  Ti  Ti36  1  0.51052894  0.25179139  0.32695186  1
  Ti  Ti37  1  0.47728680  0.27230345  0.65286403  1
  Ti  Ti38  1  0.48471350  0.52283539  0.66395363  1
  Ti  Ti39  1  0.52218835  0.72791676  0.00144858  1
  Ti  Ti40  1  0.50010495  0.75618447  0.34893896  1
  Ti  Ti41  1  0.74731594  0.99258225  0.34230661  1
  Ti  Ti42  1  0.73818061  0.02127928  0.68662725  1
  Ti  Ti43  1  0.77678084  0.48089196  -0.01146217  1
  Ti  Ti44  1  0.72241421  0.52596661  0.64542667  1
  Ti  Ti45  1  0.77567274  0.72319225  0.00647033  1
  Ti  Ti46  1  0.74543725  0.74468042  0.34079411  1
  Ti  Ti47  1  0.71396349  0.76922324  0.67453026  1
