# generated using pymatgen
data_Ti21Al3V
_symmetry_space_group_name_H-M   'P 1'
_cell_length_a   7.49459698
_cell_length_b   8.93614679
_cell_length_c   13.83406591
_cell_angle_alpha   104.04900496
_cell_angle_beta   104.75980752
_cell_angle_gamma   98.75375344
_symmetry_Int_Tables_number   1
_chemical_formula_structural   Ti21Al3V
_chemical_formula_sum   'Ti42 Al6 V2'
_cell_volume   846.21014098
_cell_formula_units_Z   2
loop_
 _symmetry_equiv_pos_site_id
 _symmetry_equiv_pos_as_xyz
  1  'x, y, z'
loop_
 _atom_site_type_symbol
 _atom_site_label
 _atom_site_symmetry_multiplicity
 _atom_site_fract_x
 _atom_site_fract_y
 _atom_site_fract_z
 _atom_site_occupancy
  Al  Al0  1  0.71542472  0.31767549  0.44756594  1
  Al  Al1  1  0.99873614  0.36972905  0.81866270  1
  Al  Al2  1  0.19382094  0.25483959  0.97463170  1
  Al  Al3  1  0.90984041  0.59618882  0.40513950  1
  Al  Al4  1  0.49608368  0.62799141  0.68336529  1
  Al  Al5  1  0.38601942  0.52375495  0.93402651  1
  Ti  Ti6  1  -0.00599096  0.97003369  0.01501805  1
  Ti  Ti7  1  0.69278982  0.11274395  0.04650610  1
  Ti  Ti8  1  0.39568027  0.13177855  0.13146006  1
  Ti  Ti9  1  0.08588396  0.26773975  0.15566957  1
  Ti  Ti10  1  0.60878098  0.02318303  0.29484686  1
  Ti  Ti11  1  0.30592511  0.16238242  0.32461392  1
  Ti  Ti12  1  0.00506839  0.15699039  0.41526838  1
  Ti  Ti13  1  0.51342955  0.03492841  0.48326365  1
  Ti  Ti14  1  0.21653541  0.05392730  0.57734748  1
  Ti  Ti15  1  0.09116243  0.06788847  0.75557191  1
  Ti  Ti16  1  0.58912398  0.41181905  0.08966945  1
  Ti  Ti17  1  0.29087379  0.55373000  0.13281110  1
  Ti  Ti18  1  0.97697724  0.55614787  0.20477796  1
  Ti  Ti19  1  0.81635055  0.29301547  0.26255639  1
  Ti  Ti20  1  0.51435120  0.43392023  0.28606472  1
  Ti  Ti21  1  0.21105272  0.46646228  0.36662273  1
  Ti  Ti22  1  0.42680998  0.33345498  0.53925883  1
  Ti  Ti23  1  0.10916977  0.47344491  0.55561570  1
  Ti  Ti24  1  0.90038079  0.19452385  0.60410415  1
  Ti  Ti25  1  0.60392029  0.20226764  0.70191361  1
  Ti  Ti26  1  0.29506689  0.35232090  0.71835705  1
  Ti  Ti27  1  0.81102129  0.09627914  0.85989388  1
  Ti  Ti28  1  0.49118195  0.22242756  0.88310653  1
  Ti  Ti29  1  0.79290436  0.67971995  0.05610878  1
  Ti  Ti30  1  0.48598487  0.82137849  0.08054644  1
  Ti  Ti31  1  0.21128965  0.85698559  0.17877902  1
  Ti  Ti32  1  0.70009176  0.71519159  0.24987459  1
  Ti  Ti33  1  0.41829376  0.73478353  0.34770299  1
  Ti  Ti34  1  0.11089063  0.86212389  0.36519556  1
  Ti  Ti35  1  0.60670738  0.60745030  0.49954917  1
  Ti  Ti36  1  0.00849007  0.77031188  0.61925205  1
  Ti  Ti37  1  0.81075146  0.49433916  0.66123724  1
  Ti  Ti38  1  0.20016665  0.64598119  0.77698233  1
  Ti  Ti39  1  0.68407152  0.49829118  0.84609312  1
  Ti  Ti40  1  0.08199880  0.67025715  0.96455216  1
  Ti  Ti41  1  0.89370334  0.98770507  0.20231605  1
  Ti  Ti42  1  0.83010454  0.89426582  0.46470801  1
  Ti  Ti43  1  0.68408313  0.89775838  0.63693504  1
  Ti  Ti44  1  0.40386134  0.92539727  0.73919916  1
  Ti  Ti45  1  0.88651049  0.79098978  0.80194161  1
  Ti  Ti46  1  0.59405279  0.80974692  0.89810584  1
  Ti  Ti47  1  0.27712086  0.95061418  0.91750867  1
  V  V48  1  0.87779258  0.37855220  -0.00000117  1
  V  V49  1  0.29565932  0.74656738  0.52570361  1
