# generated using pymatgen
data_HfTaTiMoWC5
_symmetry_space_group_name_H-M   'P 1'
_cell_length_a   5.43856917
_cell_length_b   5.43884572
_cell_length_c   8.29668957
_cell_angle_alpha   108.88593762
_cell_angle_beta   109.22216678
_cell_angle_gamma   80.80533132
_symmetry_Int_Tables_number   1
_chemical_formula_structural   HfTaTiMoWC5
_chemical_formula_sum   'Hf2 Ta2 Ti2 Mo2 W2 C10'
_cell_volume   218.86566464
_cell_formula_units_Z   2
loop_
 _symmetry_equiv_pos_site_id
 _symmetry_equiv_pos_as_xyz
  1  'x, y, z'
loop_
 _atom_site_type_symbol
 _atom_site_label
 _atom_site_symmetry_multiplicity
 _atom_site_fract_x
 _atom_site_fract_y
 _atom_site_fract_z
 _atom_site_occupancy
  C  C0  1  0.75596845  0.15669750  0.55466592  1
  C  C1  1  0.24757063  0.84358159  0.45263009  1
  C  C2  1  0.75032633  0.54448963  0.34894183  1
  C  C3  1  0.25216061  0.26351879  0.25155650  1
  C  C4  1  0.74749905  0.95355933  0.14978936  1
  C  C5  1  0.24508254  0.64364838  0.04817894  1
  C  C6  1  0.75318929  0.35478113  0.95002393  1
  C  C7  1  0.25507103  0.05756007  0.84877960  1
  C  C8  1  0.74226020  0.74328870  0.74671157  1
  C  C9  1  0.25203305  0.44535945  0.65047348  1
  Mo  Mo10  1  0.99772778  0.78416306  0.58911985  1
  Mo  Mo11  1  0.49412490  0.67597304  0.89974244  1
  Hf  Hf12  1  0.49971793  0.90048098  0.30202819  1
  Hf  Hf13  1  0.00180994  0.00112248  0.99573323  1
  Ta  Ta14  1  0.50203961  0.09212019  0.70314148  1
  Ta  Ta15  1  0.00232151  0.20240373  0.40192214  1
  Ti  Ti16  1  0.49658152  0.50173040  0.50516267  1
  Ti  Ti17  1  0.00178035  0.60300764  0.19759633  1
  W  W18  1  0.50768527  0.31509933  0.10851988  1
  W  W19  1  0.99504999  0.41741457  0.79528258  1
