# generated using pymatgen
data_ZrTiC2
_symmetry_space_group_name_H-M   'P 1'
_cell_length_a   5.55646620
_cell_length_b   6.42182185
_cell_length_c   11.56572541
_cell_angle_alpha   73.88993049
_cell_angle_beta   76.09590932
_cell_angle_gamma   73.24937594
_symmetry_Int_Tables_number   1
_chemical_formula_structural   ZrTiC2
_chemical_formula_sum   'Zr8 Ti8 C16'
_cell_volume   373.85558466
_cell_formula_units_Z   8
loop_
 _symmetry_equiv_pos_site_id
 _symmetry_equiv_pos_as_xyz
  1  'x, y, z'
loop_
 _atom_site_type_symbol
 _atom_site_label
 _atom_site_symmetry_multiplicity
 _atom_site_fract_x
 _atom_site_fract_y
 _atom_site_fract_z
 _atom_site_occupancy
  C  C0  1  0.75027572  0.71652178  0.67850195  1
  C  C1  1  0.24403008  0.52926995  0.80717405  1
  C  C2  1  0.74386122  0.60124597  0.43774813  1
  C  C3  1  0.24940971  0.76958290  0.32205518  1
  C  C4  1  0.74354610  0.22864011  0.68277613  1
  C  C5  1  0.25562021  0.41142110  0.56206894  1
  C  C6  1  0.24921334  0.04159885  0.80333826  1
  C  C7  1  0.75568522  0.47078098  0.19315759  1
  C  C8  1  0.23923091  0.65088459  0.06592587  1
  C  C9  1  0.73851415  0.08814397  0.44253871  1
  C  C10  1  0.25629925  0.28565100  0.31656032  1
  C  C11  1  0.26190470  0.90005507  0.55775155  1
  C  C12  1  0.76150143  0.34948500  0.93333064  1
  C  C13  1  0.75113253  0.95771582  0.19639693  1
  C  C14  1  0.24480815  0.16365861  0.06293477  1
  C  C15  1  0.75466952  0.83555481  0.93772000  1
  Ti  Ti16  1  0.50012929  0.06456011  0.62059273  1
  Ti  Ti17  1  0.00050613  0.74660868  0.50021556  1
  Ti  Ti18  1  0.50218298  0.93194318  0.38005134  1
  Ti  Ti19  1  0.50141447  0.56460959  0.62017675  1
  Ti  Ti20  1  0.99598583  0.62350286  0.25515363  1
  Ti  Ti21  1  0.49641196  0.43943238  0.37923909  1
  Ti  Ti22  1  0.00008180  0.50023967  0.00000757  1
  Ti  Ti23  1  0.00373259  0.37910099  0.74467020  1
  Zr  Zr24  1  0.99984164  0.25367644  0.49986522  1
  Zr  Zr25  1  0.99933689  0.12211101  0.25622844  1
  Zr  Zr26  1  0.50179386  0.31290636  0.12833607  1
  Zr  Zr27  1  0.99995363  0.99962280  0.99993675  1
  Zr  Zr28  1  0.50002498  0.19134676  0.87109393  1
  Zr  Zr29  1  0.49831530  0.80806299  0.13000491  1
  Zr  Zr30  1  0.00071607  0.87478446  0.74397851  1
  Zr  Zr31  1  0.49987035  0.68728127  0.87047028  1
