# generated using pymatgen
data_Al3BN4
_symmetry_space_group_name_H-M   'P 1'
_cell_length_a   6.02834897
_cell_length_b   6.02834897
_cell_length_c   4.80519341
_cell_angle_alpha   89.70774988
_cell_angle_beta   90.29225009
_cell_angle_gamma   120.17204974
_symmetry_Int_Tables_number   1
_chemical_formula_structural   Al3BN4
_chemical_formula_sum   'Al6 B2 N8'
_cell_volume   150.96463107
_cell_formula_units_Z   2
loop_
 _symmetry_equiv_pos_site_id
 _symmetry_equiv_pos_as_xyz
  1  'x, y, z'
loop_
 _atom_site_type_symbol
 _atom_site_label
 _atom_site_symmetry_multiplicity
 _atom_site_fract_x
 _atom_site_fract_y
 _atom_site_fract_z
 _atom_site_occupancy
  Al  Al0  1  0.16230664  0.33769336  0.49331287  1
  Al  Al1  1  0.33442249  0.16557751  0.00160641  1
  Al  Al2  1  0.17205508  0.82794492  0.50139245  1
  Al  Al3  1  0.67205508  0.32794492  0.50139245  1
  Al  Al4  1  0.66230664  0.83769336  0.49331287  1
  Al  Al5  1  0.83442249  0.66557751  0.00160641  1
  N  N6  1  0.15329652  0.34670348  0.89380388  1
  N  N7  1  0.33264867  0.16735133  0.39329782  1
  N  N8  1  0.18483278  0.81516722  0.89479822  1
  N  N9  1  0.33327428  0.66672572  0.33754693  1
  N  N10  1  0.68483278  0.31516722  0.89479822  1
  N  N11  1  0.83327428  0.16672572  0.33754693  1
  N  N12  1  0.65329652  0.84670348  0.89380388  1
  N  N13  1  0.83264867  0.66735133  0.39329782  1
  B  B14  1  0.32716355  0.67283645  0.01224142  1
  B  B15  1  0.82716355  0.17283645  0.01224142  1
