# generated using pymatgen
data_Zr5Ti3C8
_symmetry_space_group_name_H-M   'P 1'
_cell_length_a   11.22325702
_cell_length_b   9.71432657
_cell_length_c   7.25618515
_cell_angle_alpha   81.40917171
_cell_angle_beta   58.85288074
_cell_angle_gamma   39.74582815
_symmetry_Int_Tables_number   1
_chemical_formula_structural   Zr5Ti3C8
_chemical_formula_sum   'Zr10 Ti6 C16'
_cell_volume   385.76645152
_cell_formula_units_Z   2
loop_
 _symmetry_equiv_pos_site_id
 _symmetry_equiv_pos_as_xyz
  1  'x, y, z'
loop_
 _atom_site_type_symbol
 _atom_site_label
 _atom_site_symmetry_multiplicity
 _atom_site_fract_x
 _atom_site_fract_y
 _atom_site_fract_z
 _atom_site_occupancy
  C  C0  1  0.86215984  0.37968481  0.63284611  1
  C  C1  1  0.62632593  0.37632593  0.12367407  1
  C  C2  1  0.86696764  0.14077830  0.38295011  1
  C  C3  1  0.38226944  0.37534823  0.61258483  1
  C  C4  1  0.62534823  0.13226944  0.87979750  1
  C  C5  1  0.86704208  0.88427188  0.12800576  1
  C  C6  1  0.12114731  0.37175553  0.12866424  1
  C  C7  1  0.37654134  0.12654134  0.37345866  1
  C  C8  1  0.62175553  0.87114731  0.62843290  1
  C  C9  1  0.87096662  0.62096662  0.87903338  1
  C  C10  1  0.11957138  0.12916564  0.88478680  1
  C  C11  1  0.37916564  0.86957138  0.11647619  1
  C  C12  1  0.62968481  0.61215984  0.37530923  1
  C  C13  1  0.12594497  0.87594497  0.62405503  1
  C  C14  1  0.39077830  0.61696764  0.85930395  1
  C  C15  1  0.13427188  0.61704208  0.37068028  1
  Ti  Ti16  1  0.99350063  0.25237982  0.25353827  1
  Ti  Ti17  1  0.74903694  0.25545477  0.74917514  1
  Ti  Ti18  1  0.50254645  0.25254645  0.24745355  1
  Ti  Ti19  1  0.50237982  0.74350063  0.75058129  1
  Ti  Ti20  1  0.74758262  0.49758262  0.00241738  1
  Ti  Ti21  1  0.50545477  0.49903694  0.49633316  1
  Zr  Zr22  1  0.24868013  0.24864405  0.75143348  1
  Zr  Zr23  1  0.24866885  0.99866885  0.50133115  1
  Zr  Zr24  1  0.99885330  0.00459701  0.00053726  1
  Zr  Zr25  1  0.25459701  0.74885330  0.24601243  1
  Zr  Zr26  1  0.74976614  0.00402566  0.50018500  1
  Zr  Zr27  1  0.00129166  0.75129166  0.74870834  1
  Zr  Zr28  1  0.25402566  0.49976614  0.99602320  1
  Zr  Zr29  1  0.49864405  0.99868013  0.00124234  1
  Zr  Zr30  1  0.74786109  0.74716990  0.25251722  1
  Zr  Zr31  1  0.99716990  0.49786109  0.50245178  1
