# generated using pymatgen
data_AlCrN2
_symmetry_space_group_name_H-M   'P 1'
_cell_length_a   6.22043040
_cell_length_b   6.30190568
_cell_length_c   4.94337820
_cell_angle_alpha   91.48053574
_cell_angle_beta   90.00000000
_cell_angle_gamma   119.57323661
_symmetry_Int_Tables_number   1
_chemical_formula_structural   AlCrN2
_chemical_formula_sum   'Al4 Cr4 N8'
_cell_volume   168.46383413
_cell_formula_units_Z   4
loop_
 _symmetry_equiv_pos_site_id
 _symmetry_equiv_pos_as_xyz
  1  'x, y, z'
loop_
 _atom_site_type_symbol
 _atom_site_label
 _atom_site_symmetry_multiplicity
 _atom_site_fract_x
 _atom_site_fract_y
 _atom_site_fract_z
 _atom_site_occupancy
  Al  Al0  1  0.16449645  0.33075403  0.50382697  1
  Al  Al1  1  0.33236672  0.16473346  0.99547300  1
  Al  Al2  1  0.66625759  0.33075403  0.50382697  1
  Al  Al3  1  0.66820568  0.83641135  0.51918945  1
  N  N4  1  0.16659043  0.33979094  0.89122432  1
  N  N5  1  0.33708500  0.17417001  0.37940125  1
  N  N6  1  0.16977054  0.83954105  0.84425152  1
  N  N7  1  0.33988208  0.65752971  0.39140529  1
  N  N8  1  0.67320052  0.33979094  0.89122432  1
  N  N9  1  0.82953868  0.15907736  0.39901922  1
  N  N10  1  0.66620561  0.83241119  0.91413280  1
  N  N11  1  0.81764763  0.65752971  0.39140529  1
  Cr  Cr12  1  0.16166689  0.82333376  0.42029418  1
  Cr  Cr13  1  0.32121193  0.67435137  0.00863382  1
  Cr  Cr14  1  0.83273483  0.16546969  0.99405781  1
  Cr  Cr15  1  0.85313943  0.67435137  0.00863382  1
