# generated using pymatgen
data_TiCr3N4
_symmetry_space_group_name_H-M   'P 1'
_cell_length_a   5.81336772
_cell_length_b   6.46702157
_cell_length_c   7.71848777
_cell_angle_alpha   84.79436301
_cell_angle_beta   79.97529549
_cell_angle_gamma   78.12792850
_symmetry_Int_Tables_number   1
_chemical_formula_structural   TiCr3N4
_chemical_formula_sum   'Ti4 Cr12 N16'
_cell_volume   279.18089669
_cell_formula_units_Z   4
loop_
 _symmetry_equiv_pos_site_id
 _symmetry_equiv_pos_as_xyz
  1  'x, y, z'
loop_
 _atom_site_type_symbol
 _atom_site_label
 _atom_site_symmetry_multiplicity
 _atom_site_fract_x
 _atom_site_fract_y
 _atom_site_fract_z
 _atom_site_occupancy
  Cr  Cr0  1  0.11116969  0.68079453  0.90181715  1
  Cr  Cr1  1  0.59040830  0.67099959  0.96273967  1
  Cr  Cr2  1  0.00222302  0.46841657  0.69168749  1
  Cr  Cr3  1  0.44425891  0.40768984  0.69409687  1
  Cr  Cr4  1  0.28507015  0.04947211  0.79112660  1
  Cr  Cr5  1  0.15286055  0.80656410  0.58816837  1
  Cr  Cr6  1  0.00667551  0.57850536  0.30578176  1
  Cr  Cr7  1  0.54109732  0.58326504  0.28744110  1
  Cr  Cr8  1  0.90977586  0.27024015  0.06557787  1
  Cr  Cr9  1  0.43741044  0.34526018  0.07423698  1
  Cr  Cr10  1  0.16864899  0.96014878  0.19154559  1
  Cr  Cr11  1  0.73729067  0.90815664  0.18625666  1
  Ti  Ti12  1  0.75551453  0.07023353  0.82090817  1
  Ti  Ti13  1  0.65456789  0.80138608  0.55469275  1
  Ti  Ti14  1  0.34387720  0.19113226  0.44347981  1
  Ti  Ti15  1  0.85011636  0.20023103  0.43294030  1
  N  N16  1  0.68665612  0.38380400  0.87054958  1
  N  N17  1  0.18270809  0.36837988  0.88634195  1
  N  N18  1  0.56529609  0.11892296  0.62253991  1
  N  N19  1  0.05713240  0.13229875  0.62778595  1
  N  N20  1  0.86616133  0.75181793  0.75787567  1
  N  N21  1  0.38988325  0.73971757  0.75582828  1
  N  N22  1  0.75190424  0.49938442  0.50566269  1
  N  N23  1  0.25495313  0.51375337  0.49802813  1
  N  N24  1  0.62830971  0.25741932  0.25022554  1
  N  N25  1  0.13433133  0.26127676  0.23605729  1
  N  N26  1  0.48829836  0.00124539  0.01077737  1
  N  N27  1  0.00352959  0.97987522  0.99606934  1
  N  N28  1  0.94273330  0.87123619  0.38047878  1
  N  N29  1  0.42549606  0.87535287  0.37001163  1
  N  N30  1  0.82886496  0.61421571  0.11455477  1
  N  N31  1  0.30277665  0.63880386  0.12471598  1
