# generated using pymatgen
data_AlCr3N4
_symmetry_space_group_name_H-M   'P 1'
_cell_length_a   7.97847409
_cell_length_b   7.87447864
_cell_length_c   5.31869715
_cell_angle_alpha   90.72973806
_cell_angle_beta   90.91139526
_cell_angle_gamma   103.94231231
_symmetry_Int_Tables_number   1
_chemical_formula_structural   AlCr3N4
_chemical_formula_sum   'Al4 Cr12 N16'
_cell_volume   324.22131436
_cell_formula_units_Z   4
loop_
 _symmetry_equiv_pos_site_id
 _symmetry_equiv_pos_as_xyz
  1  'x, y, z'
loop_
 _atom_site_type_symbol
 _atom_site_label
 _atom_site_symmetry_multiplicity
 _atom_site_fract_x
 _atom_site_fract_y
 _atom_site_fract_z
 _atom_site_occupancy
  Cr  Cr0  1  0.01472447  0.53721523  0.31828342  1
  Cr  Cr1  1  0.23691114  0.22989798  0.30997014  1
  Cr  Cr2  1  0.10727074  0.39681222  0.81746932  1
  Cr  Cr3  1  0.51705974  0.01212426  0.36342253  1
  Cr  Cr4  1  0.35753597  0.09966933  0.81269062  1
  Cr  Cr5  1  0.88849772  0.61043844  0.84683504  1
  Cr  Cr6  1  0.91857620  0.13998197  0.14753383  1
  Cr  Cr7  1  0.73867106  0.21878541  0.67156841  1
  Cr  Cr8  1  0.13332975  0.91244314  0.14605935  1
  Cr  Cr9  1  0.03013110  0.04236759  0.66505687  1
  Cr  Cr10  1  0.21259363  0.74441595  0.67153462  1
  Cr  Cr11  1  0.43372193  0.43687141  0.66858547  1
  N  N12  1  0.20383297  0.72335056  0.32020055  1
  N  N13  1  0.43894821  0.43410441  0.31456646  1
  N  N14  1  0.31545215  0.58255507  0.83995084  1
  N  N15  1  0.71291425  0.18386115  0.31705610  1
  N  N16  1  0.56695241  0.30238027  0.83074942  1
  N  N17  1  0.93844082  0.94231878  0.34203425  1
  N  N18  1  0.81318960  0.04234112  0.83312922  1
  N  N19  1  0.03272451  0.82473206  0.82236527  1
  N  N20  1  0.80197557  0.56549602  0.17772445  1
  N  N21  1  0.08420331  0.35536041  0.17016944  1
  N  N22  1  0.91328403  0.43276227  0.62863287  1
  N  N23  1  0.35596421  0.07449755  0.16241695  1
  N  N24  1  0.21860994  0.23310142  0.65831120  1
  N  N25  1  0.56959852  0.81388914  0.19681013  1
  N  N26  1  0.44284043  0.91562222  0.67877353  1
  N  N27  1  0.67430332  0.65276954  0.69113139  1
  Al  Al28  1  0.74659575  0.74304523  0.37172420  1
  Al  Al29  1  0.62124625  0.84440141  0.85548739  1
  Al  Al30  1  0.62453818  0.36400886  0.16893576  1
  Al  Al31  1  0.37536211  0.62837960  0.18082094  1
