# generated using pymatgen
data_TiCr3N4
_symmetry_space_group_name_H-M   'P 1'
_cell_length_a   7.95446518
_cell_length_b   7.99855344
_cell_length_c   5.66616493
_cell_angle_alpha   89.85557251
_cell_angle_beta   90.33175509
_cell_angle_gamma   118.83093984
_symmetry_Int_Tables_number   1
_chemical_formula_structural   TiCr3N4
_chemical_formula_sum   'Ti4 Cr12 N16'
_cell_volume   315.81405760
_cell_formula_units_Z   4
loop_
 _symmetry_equiv_pos_site_id
 _symmetry_equiv_pos_as_xyz
  1  'x, y, z'
loop_
 _atom_site_type_symbol
 _atom_site_label
 _atom_site_symmetry_multiplicity
 _atom_site_fract_x
 _atom_site_fract_y
 _atom_site_fract_z
 _atom_site_occupancy
  Cr  Cr0  1  0.97189004  0.49459277  0.32184920  1
  Cr  Cr1  1  0.21980039  0.21013179  0.35116526  1
  Cr  Cr2  1  0.08749994  0.33591251  0.87638402  1
  Cr  Cr3  1  0.46298354  0.99293707  0.32077607  1
  Cr  Cr4  1  0.37524030  0.10912349  0.79840521  1
  Cr  Cr5  1  0.87621828  0.58823480  0.81523928  1
  Cr  Cr6  1  0.87764354  0.09026931  0.18570170  1
  Cr  Cr7  1  0.70609864  0.20513672  0.63035170  1
  Cr  Cr8  1  0.08530554  0.83213403  0.11873508  1
  Cr  Cr9  1  0.96645288  0.99783175  0.68237383  1
  Cr  Cr10  1  0.19775615  0.69366127  0.66783042  1
  Cr  Cr11  1  0.44100954  0.46190986  0.68048300  1
  N  N12  1  0.20971152  0.73861410  0.33702616  1
  N  N13  1  0.47287163  0.46362630  0.34541401  1
  N  N14  1  0.33521864  0.59226030  0.84998100  1
  N  N15  1  0.72557858  0.21493872  0.29769020  1
  N  N16  1  0.60580016  0.35473955  0.79007428  1
  N  N17  1  0.99417270  0.95925522  0.34613109  1
  N  N18  1  0.83582558  0.11215782  0.84701406  1
  N  N19  1  0.09159887  0.84695922  0.78272370  1
  N  N20  1  0.83881278  0.60131076  0.14720090  1
  N  N21  1  0.08880675  0.34342121  0.21686400  1
  N  N22  1  0.97515214  0.44430209  0.65609881  1
  N  N23  1  0.33263843  0.09560812  0.13714206  1
  N  N24  1  0.21611342  0.21545608  0.69209896  1
  N  N25  1  0.60019547  0.85346727  0.20159422  1
  N  N26  1  0.46540186  0.95815331  0.65009575  1
  N  N27  1  0.72648513  0.71941835  0.70350267  1
  Ti  Ti28  1  0.73049044  0.72253916  0.35739431  1
  Ti  Ti29  1  0.59673262  0.85044873  0.84680091  1
  Ti  Ti30  1  0.59190367  0.34459580  0.14555267  1
  Ti  Ti31  1  0.33859083  0.59685253  0.20030547  1
