# generated using pymatgen
data_AlCrN2
_symmetry_space_group_name_H-M   'P 1'
_cell_length_a   7.85603416
_cell_length_b   7.73498454
_cell_length_c   7.85266237
_cell_angle_alpha   129.12154105
_cell_angle_beta   117.03255438
_cell_angle_gamma   85.31976900
_symmetry_Int_Tables_number   1
_chemical_formula_structural   AlCrN2
_chemical_formula_sum   'Al8 Cr8 N16'
_cell_volume   314.88394751
_cell_formula_units_Z   8
loop_
 _symmetry_equiv_pos_site_id
 _symmetry_equiv_pos_as_xyz
  1  'x, y, z'
loop_
 _atom_site_type_symbol
 _atom_site_label
 _atom_site_symmetry_multiplicity
 _atom_site_fract_x
 _atom_site_fract_y
 _atom_site_fract_z
 _atom_site_occupancy
  Al  Al0  1  0.70514453  0.66882921  0.53308373  1
  Al  Al1  1  0.19284045  0.16261802  0.52337554  1
  Al  Al2  1  0.94191130  0.16103898  0.76766149  1
  Al  Al3  1  0.45289436  0.17500481  0.29473354  1
  Al  Al4  1  0.11551287  0.83485586  0.78289920  1
  Al  Al5  1  0.87893472  0.83668755  0.03152333  1
  Al  Al6  1  0.11054057  0.32729421  0.27550652  1
  Al  Al7  1  0.86570683  0.33369609  0.52983964  1
  N  N8  1  0.45667877  0.68692517  0.31533704  1
  N  N9  1  0.94476668  0.16640244  0.28072603  1
  N  N10  1  0.17918765  0.65492843  0.52468993  1
  N  N11  1  0.95210127  0.66756487  0.78153127  1
  N  N12  1  0.69578718  0.16774187  0.53130622  1
  N  N13  1  0.42715595  0.16963550  0.77418965  1
  N  N14  1  0.69560052  0.66826637  0.01162476  1
  N  N15  1  0.19370483  0.16616197  0.03093240  1
  N  N16  1  0.85914217  0.83254668  0.52348347  1
  N  N17  1  0.36383056  0.33174360  0.52985220  1
  N  N18  1  0.63086497  0.84232346  0.78356892  1
  N  N19  1  0.36835285  0.83820853  0.03078477  1
  N  N20  1  0.11116578  0.32276210  0.76885694  1
  N  N21  1  0.86158322  0.31427866  0.01448033  1
  N  N22  1  0.11390841  0.82213164  0.27635460  1
  N  N23  1  0.61167353  0.34135515  0.28958491  1
  Cr  Cr24  1  0.45006381  0.68778786  0.78138324  1
  Cr  Cr25  1  0.23771732  0.65839329  0.05209719  1
  Cr  Cr26  1  0.66244448  0.17344893  0.00768435  1
  Cr  Cr27  1  0.91216844  0.64729717  0.24614677  1
  Cr  Cr28  1  0.62127945  0.34329353  0.81348299  1
  Cr  Cr29  1  0.60050390  0.80164817  0.24384773  1
  Cr  Cr30  1  0.37081569  0.35677897  0.03991970  1
  Cr  Cr31  1  0.37601695  0.83835092  0.56951157  1
