# generated using pymatgen
data_AlCr3N4
_symmetry_space_group_name_H-M   'P 1'
_cell_length_a   6.31835842
_cell_length_b   6.31835842
_cell_length_c   4.80327307
_cell_angle_alpha   90.00000000
_cell_angle_beta   90.00000000
_cell_angle_gamma   119.23835599
_symmetry_Int_Tables_number   1
_chemical_formula_structural   AlCr3N4
_chemical_formula_sum   'Al2 Cr6 N8'
_cell_volume   167.32416205
_cell_formula_units_Z   2
loop_
 _symmetry_equiv_pos_site_id
 _symmetry_equiv_pos_as_xyz
  1  'x, y, z'
loop_
 _atom_site_type_symbol
 _atom_site_label
 _atom_site_symmetry_multiplicity
 _atom_site_fract_x
 _atom_site_fract_y
 _atom_site_fract_z
 _atom_site_occupancy
  Al  Al0  1  0.16962843  0.33037157  0.53574933  1
  Al  Al1  1  0.33037157  0.16962843  0.03574933  1
  N  N2  1  0.16629669  0.33370331  0.92773953  1
  N  N3  1  0.33370331  0.16629669  0.42773953  1
  N  N4  1  0.17041791  0.85346044  0.89896854  1
  N  N5  1  0.32958209  0.64653956  0.39896854  1
  N  N6  1  0.64653956  0.32958209  0.89896854  1
  N  N7  1  0.85346044  0.17041791  0.39896854  1
  N  N8  1  0.65904725  0.84095275  0.92545057  1
  N  N9  1  0.84095275  0.65904725  0.42545057  1
  Cr  Cr10  1  0.17424967  0.82353502  0.50329572  1
  Cr  Cr11  1  0.32575033  0.67646498  0.00329572  1
  Cr  Cr12  1  0.67646498  0.32575033  0.50329572  1
  Cr  Cr13  1  0.82353502  0.17424967  0.00329572  1
  Cr  Cr14  1  0.67307791  0.82692209  0.33453203  1
  Cr  Cr15  1  0.82692209  0.67307791  0.83453203  1
