# generated using pymatgen
data_Ti15SiN16
_symmetry_space_group_name_H-M   'P 1'
_cell_length_a   6.99899971
_cell_length_b   6.99899971
_cell_length_c   8.46304050
_cell_angle_alpha   90.00000000
_cell_angle_beta   90.00000000
_cell_angle_gamma   120.00000004
_symmetry_Int_Tables_number   1
_chemical_formula_structural   Ti15SiN16
_chemical_formula_sum   'Ti15 Si1 N16'
_cell_volume   359.02856391
_cell_formula_units_Z   1
loop_
 _symmetry_equiv_pos_site_id
 _symmetry_equiv_pos_as_xyz
  1  'x, y, z'
loop_
 _atom_site_type_symbol
 _atom_site_label
 _atom_site_symmetry_multiplicity
 _atom_site_fract_x
 _atom_site_fract_y
 _atom_site_fract_z
 _atom_site_occupancy
  Si  Si0  1  0.16666667  0.33333333  0.22053489  1
  Ti  Ti1  1  0.33391878  0.16608122  0.96752386  1
  Ti  Ti2  1  0.16666667  0.33333333  0.72048021  1
  Ti  Ti3  1  0.33388331  0.16611669  0.47324464  1
  Ti  Ti4  1  0.17335306  0.83667652  0.22059962  1
  Ti  Ti5  1  0.33391878  0.66783756  0.96752386  1
  Ti  Ti6  1  0.16664729  0.83332365  0.72045713  1
  Ti  Ti7  1  0.33388331  0.66776662  0.47324464  1
  Ti  Ti8  1  0.66332348  0.32664694  0.22059962  1
  Ti  Ti9  1  0.83216244  0.16608122  0.96752386  1
  Ti  Ti10  1  0.66667635  0.33335271  0.72045713  1
  Ti  Ti11  1  0.83223338  0.16611669  0.47324464  1
  Ti  Ti12  1  0.66332348  0.83667652  0.22059962  1
  Ti  Ti13  1  0.83333333  0.66666667  0.97260560  1
  Ti  Ti14  1  0.66667635  0.83332365  0.72045713  1
  Ti  Ti15  1  0.83333333  0.66666667  0.46833464  1
  N  N16  1  0.16666667  0.33333333  0.46213148  1
  N  N17  1  0.31404799  0.18595201  0.22055337  1
  N  N18  1  0.16666667  0.33333333  0.97894710  1
  N  N19  1  0.33131045  0.16868955  0.72051484  1
  N  N20  1  0.16793737  0.83396868  0.47053143  1
  N  N21  1  0.31404799  0.62809601  0.22055337  1
  N  N22  1  0.16788141  0.83394070  0.97055208  1
  N  N23  1  0.33131045  0.66262091  0.72051484  1
  N  N24  1  0.66603132  0.33206263  0.47053143  1
  N  N25  1  0.87190399  0.18595201  0.22055337  1
  N  N26  1  0.66605930  0.33211859  0.97055208  1
  N  N27  1  0.83737909  0.16868955  0.72051484  1
  N  N28  1  0.66603132  0.83396868  0.47053143  1
  N  N29  1  0.83333333  0.66666667  0.22051327  1
  N  N30  1  0.66605930  0.83394070  0.97055208  1
  N  N31  1  0.83333333  0.66666667  0.72052188  1
