# generated using pymatgen
data_TiSi3N4
_symmetry_space_group_name_H-M   'P 1'
_cell_length_a   5.42732235
_cell_length_b   7.29728352
_cell_length_c   8.79347455
_cell_angle_alpha   77.79698131
_cell_angle_beta   87.40312843
_cell_angle_gamma   79.65471905
_symmetry_Int_Tables_number   1
_chemical_formula_structural   TiSi3N4
_chemical_formula_sum   'Ti4 Si12 N16'
_cell_volume   334.85049995
_cell_formula_units_Z   4
loop_
 _symmetry_equiv_pos_site_id
 _symmetry_equiv_pos_as_xyz
  1  'x, y, z'
loop_
 _atom_site_type_symbol
 _atom_site_label
 _atom_site_symmetry_multiplicity
 _atom_site_fract_x
 _atom_site_fract_y
 _atom_site_fract_z
 _atom_site_occupancy
  Si  Si0  1  0.03796428  0.67627081  0.00238442  1
  Si  Si1  1  0.54242577  0.63313573  0.88753451  1
  Si  Si2  1  0.05082906  0.46753012  0.71435859  1
  Si  Si3  1  0.43209433  0.52155375  0.56993833  1
  Si  Si4  1  0.30601285  0.06990159  0.75708873  1
  Si  Si5  1  0.18092387  0.84315432  0.57582879  1
  Si  Si6  1  0.97232461  0.56316059  0.36737786  1
  Si  Si7  1  0.51360002  0.59367397  0.25353874  1
  Si  Si8  1  0.87398881  0.31783809  0.13244808  1
  Si  Si9  1  0.37444263  0.32374666  0.00753016  1
  Si  Si10  1  0.26620634  0.98956896  0.10744506  1
  Si  Si11  1  0.77896601  0.93298227  0.23985325  1
  Ti  Ti12  1  0.76834509  0.05985656  0.83037176  1
  Ti  Ti13  1  0.69919043  0.80337347  0.62397544  1
  Ti  Ti14  1  0.38965782  0.15144943  0.41492425  1
  Ti  Ti15  1  0.84673979  0.16919073  0.50161669  1
  N  N16  1  0.68628928  0.35861934  0.96502902  1
  N  N17  1  0.14491787  0.48129569  0.89788438  1
  N  N18  1  0.55804103  0.10943611  0.63323045  1
  N  N19  1  0.02479781  0.22009036  0.70944310  1
  N  N20  1  0.78060150  0.77539393  0.87311285  1
  N  N21  1  0.30742695  0.82755329  0.77692252  1
  N  N22  1  0.71311142  0.46369669  0.44042189  1
  N  N23  1  0.28848868  0.47399429  0.38852875  1
  N  N24  1  0.72043431  0.16551822  0.26997578  1
  N  N25  1  0.19477015  0.21047196  0.16799309  1
  N  N26  1  0.40678350  0.09942798  0.93647220  1
  N  N27  1  0.98810545  0.91439070  0.07527149  1
  N  N28  1  0.92136067  0.78913432  0.39877911  1
  N  N29  1  0.49339591  0.84805959  0.23300146  1
  N  N30  1  0.86956929  0.54758290  0.17351647  1
  N  N31  1  0.36819447  0.59894762  0.07420279  1
