# generated using pymatgen
data_Zr7TiC8
_symmetry_space_group_name_H-M   'P 1'
_cell_length_a   5.78691952
_cell_length_b   6.68215908
_cell_length_c   11.08110723
_cell_angle_alpha   90.00000000
_cell_angle_beta   100.02498785
_cell_angle_gamma   90.00000000
_symmetry_Int_Tables_number   1
_chemical_formula_structural   Zr7TiC8
_chemical_formula_sum   'Zr14 Ti2 C16'
_cell_volume   421.95431264
_cell_formula_units_Z   2
loop_
 _symmetry_equiv_pos_site_id
 _symmetry_equiv_pos_as_xyz
  1  'x, y, z'
loop_
 _atom_site_type_symbol
 _atom_site_label
 _atom_site_symmetry_multiplicity
 _atom_site_fract_x
 _atom_site_fract_y
 _atom_site_fract_z
 _atom_site_occupancy
  C  C0  1  0.12571155  -0.00000000  0.37628943  1
  C  C1  1  0.13337991  0.50000000  0.37904195  1
  C  C2  1  0.62270375  0.25464471  0.37877550  1
  C  C3  1  0.37500000  0.26093430  0.62500000  1
  C  C4  1  0.12729625  0.25464471  0.87122450  1
  C  C5  1  0.87500000  -0.00000000  0.62500000  1
  C  C6  1  0.62428845  -0.00000000  0.87371057  1
  C  C7  1  0.37500000  -0.00000000  0.12500000  1
  C  C8  1  0.62270375  0.74535529  0.37877550  1
  C  C9  1  0.37500000  0.73906570  0.62500000  1
  C  C10  1  0.12729625  0.74535529  0.87122450  1
  C  C11  1  0.87500000  0.50000000  0.62500000  1
  C  C12  1  0.61662009  0.50000000  0.87095805  1
  C  C13  1  0.37500000  0.50000000  0.12500000  1
  C  C14  1  0.87500000  0.24980746  0.12500000  1
  C  C15  1  0.87500000  0.75019254  0.12500000  1
  Ti  Ti16  1  0.49778500  0.50000000  0.50158519  1
  Ti  Ti17  1  0.25221500  0.50000000  0.74841481  1
  Zr  Zr18  1  0.49955762  -0.00000000  0.50103811  1
  Zr  Zr19  1  0.00119224  0.25335251  0.50187534  1
  Zr  Zr20  1  0.74880776  0.25335251  0.74812466  1
  Zr  Zr21  1  0.49875774  0.25090275  0.99838601  1
  Zr  Zr22  1  0.25044238  -0.00000000  0.74896189  1
  Zr  Zr23  1  0.00017495  -0.00000000  0.99878096  1
  Zr  Zr24  1  0.74982505  -0.00000000  0.25121904  1
  Zr  Zr25  1  0.00119224  0.74664749  0.50187534  1
  Zr  Zr26  1  0.74880776  0.74664749  0.74812466  1
  Zr  Zr27  1  0.49875774  0.74909725  0.99838601  1
  Zr  Zr28  1  0.00024761  0.50000000  0.99809282  1
  Zr  Zr29  1  0.74975239  0.50000000  0.25190718  1
  Zr  Zr30  1  0.25124226  0.25090275  0.25161399  1
  Zr  Zr31  1  0.25124226  0.74909725  0.25161399  1
